  
       XFOIL         Version 6.97
  
 Calculated polar for: NACA 2412                                       
  
 1 1 Reynolds number fixed          Mach number fixed         
  
 xtrf =   1.000 (top)        1.000 (bottom)  
 Mach =   0.000     Re =     0.500 e 6     Ncrit =   9.000
  
   alpha    CL        CD       CDp       CM     Top_Xtr  Bot_Xtr
  ------ -------- --------- --------- -------- -------- --------
 -11.000  -0.9009   0.02914   0.02443  -0.0480   1.0000   0.0124
  -9.000  -0.8212   0.01671   0.01038  -0.0299   0.9979   0.0150
  -8.000  -0.6839   0.02228   0.01699  -0.0376   0.9902   0.0370
  -7.000  -0.5571   0.01772   0.01191  -0.0433   0.9743   0.0389
  -6.000  -0.4267   0.01433   0.00815  -0.0488   0.9619   0.0403
  -5.000  -0.2956   0.01188   0.00535  -0.0539   0.9477   0.0390
  -4.000  -0.1809   0.01040   0.00361  -0.0546   0.9212   0.0400
  -3.000  -0.0681   0.00894   0.00264  -0.0555   0.8936   0.1374
  -2.000   0.0363   0.00810   0.00212  -0.0543   0.8349   0.2368
  -1.000   0.1403   0.00774   0.00169  -0.0529   0.7224   0.3283
   0.000   0.2407   0.00723   0.00164  -0.0514   0.6312   0.5450
   1.000   0.3399   0.00679   0.00187  -0.0490   0.5710   0.7937
   2.000   0.4895   0.00729   0.00231  -0.0569   0.4922   0.9873
   3.000   0.6095   0.00802   0.00256  -0.0599   0.4013   1.0000
   4.000   0.7016   0.00876   0.00295  -0.0569   0.3356   1.0000
   5.000   0.7815   0.01048   0.00380  -0.0519   0.1971   1.0000
   6.000   0.8567   0.01335   0.00569  -0.0462   0.0416   1.0000
   7.000   0.9485   0.01495   0.00750  -0.0432   0.0398   1.0000
   8.000   1.0353   0.01692   0.00956  -0.0397   0.0357   1.0000
   9.000   1.1286   0.01800   0.01076  -0.0384   0.0202   1.0000
  10.000   1.1979   0.02075   0.01344  -0.0329   0.0127   1.0000
  11.000   1.2348   0.02502   0.01810  -0.0231   0.0123   1.0000
  12.000   1.2741   0.02948   0.02292  -0.0163   0.0122   1.0000
 -11.000  -0.9009   0.02914   0.02443  -0.0480   1.0000   0.0124
  -9.000  -0.8212   0.01671   0.01038  -0.0299   0.9979   0.0150
  -8.000  -0.6839   0.02228   0.01699  -0.0376   0.9902   0.0370
  -7.000  -0.5571   0.01772   0.01191  -0.0433   0.9743   0.0389
  -6.000  -0.4267   0.01433   0.00815  -0.0488   0.9619   0.0403
  -5.000  -0.2956   0.01188   0.00535  -0.0539   0.9477   0.0390
  -4.000  -0.1809   0.01040   0.00361  -0.0546   0.9212   0.0400
  -3.000  -0.0681   0.00894   0.00264  -0.0555   0.8936   0.1374
  -2.000   0.0363   0.00810   0.00212  -0.0543   0.8349   0.2368
  -1.000   0.1403   0.00774   0.00169  -0.0529   0.7224   0.3283
   0.000   0.2407   0.00723   0.00164  -0.0514   0.6312   0.5450
   1.000   0.3399   0.00679   0.00187  -0.0490   0.5710   0.7937
   2.000   0.4895   0.00729   0.00231  -0.0569   0.4922   0.9873
   3.000   0.6095   0.00802   0.00256  -0.0599   0.4013   1.0000
   4.000   0.7016   0.00876   0.00295  -0.0569   0.3356   1.0000
   5.000   0.7815   0.01048   0.00380  -0.0519   0.1971   1.0000
   6.000   0.8567   0.01335   0.00569  -0.0462   0.0416   1.0000
   7.000   0.9485   0.01495   0.00750  -0.0432   0.0398   1.0000
   8.000   1.0353   0.01692   0.00956  -0.0397   0.0357   1.0000
   9.000   1.1286   0.01800   0.01076  -0.0384   0.0202   1.0000
  10.000   1.1979   0.02075   0.01344  -0.0329   0.0127   1.0000
  11.000   1.2348   0.02502   0.01810  -0.0231   0.0123   1.0000
  12.000   1.2741   0.02948   0.02292  -0.0163   0.0122   1.0000
 -11.000  -0.9009   0.02914   0.02443  -0.0480   1.0000   0.0124
  -9.000  -0.8212   0.01671   0.01038  -0.0299   0.9979   0.0150
  -8.000  -0.6839   0.02228   0.01699  -0.0376   0.9902   0.0370
  -7.000  -0.5571   0.01772   0.01191  -0.0433   0.9743   0.0389
  -6.000  -0.4267   0.01433   0.00815  -0.0488   0.9619   0.0403
  -5.000  -0.2956   0.01188   0.00535  -0.0539   0.9477   0.0390
  -4.000  -0.1809   0.01040   0.00361  -0.0546   0.9212   0.0400
  -3.000  -0.0681   0.00894   0.00264  -0.0555   0.8936   0.1374
  -2.000   0.0363   0.00810   0.00212  -0.0543   0.8349   0.2368
  -1.000   0.1403   0.00774   0.00169  -0.0529   0.7224   0.3283
   0.000   0.2407   0.00723   0.00164  -0.0514   0.6312   0.5450
   1.000   0.3399   0.00679   0.00187  -0.0490   0.5710   0.7937
   2.000   0.4895   0.00729   0.00231  -0.0569   0.4922   0.9873
   3.000   0.6095   0.00802   0.00256  -0.0599   0.4013   1.0000
   4.000   0.7016   0.00876   0.00295  -0.0569   0.3356   1.0000
   5.000   0.7815   0.01048   0.00380  -0.0519   0.1971   1.0000
   6.000   0.8567   0.01335   0.00569  -0.0462   0.0416   1.0000
   7.000   0.9485   0.01495   0.00750  -0.0432   0.0398   1.0000
   8.000   1.0353   0.01692   0.00956  -0.0397   0.0357   1.0000
   9.000   1.1286   0.01800   0.01076  -0.0384   0.0202   1.0000
  10.000   1.1979   0.02075   0.01344  -0.0329   0.0127   1.0000
  11.000   1.2348   0.02502   0.01810  -0.0231   0.0123   1.0000
  12.000   1.2741   0.02948   0.02292  -0.0163   0.0122   1.0000
 -11.000  -0.9009   0.02914   0.02443  -0.0480   1.0000   0.0124
  -9.000  -0.8212   0.01671   0.01038  -0.0299   0.9979   0.0150
  -8.000  -0.6839   0.02228   0.01699  -0.0376   0.9902   0.0370
  -7.000  -0.5571   0.01772   0.01191  -0.0433   0.9743   0.0389
  -6.000  -0.4267   0.01433   0.00815  -0.0488   0.9619   0.0403
  -5.000  -0.2956   0.01188   0.00535  -0.0539   0.9477   0.0390
  -4.000  -0.1809   0.01040   0.00361  -0.0546   0.9212   0.0400
  -3.000  -0.0681   0.00894   0.00264  -0.0555   0.8936   0.1374
  -2.000   0.0363   0.00810   0.00212  -0.0543   0.8349   0.2368
  -1.000   0.1403   0.00774   0.00169  -0.0529   0.7224   0.3283
   0.000   0.2407   0.00723   0.00164  -0.0514   0.6312   0.5450
   1.000   0.3399   0.00679   0.00187  -0.0490   0.5710   0.7937
   2.000   0.4895   0.00729   0.00231  -0.0569   0.4922   0.9873
   3.000   0.6095   0.00802   0.00256  -0.0599   0.4013   1.0000
   4.000   0.7016   0.00876   0.00295  -0.0569   0.3356   1.0000
   5.000   0.7815   0.01048   0.00380  -0.0519   0.1971   1.0000
   6.000   0.8567   0.01335   0.00569  -0.0462   0.0416   1.0000
   7.000   0.9485   0.01495   0.00750  -0.0432   0.0398   1.0000
   8.000   1.0353   0.01692   0.00956  -0.0397   0.0357   1.0000
   9.000   1.1286   0.01800   0.01076  -0.0384   0.0202   1.0000
  10.000   1.1979   0.02075   0.01344  -0.0329   0.0127   1.0000
  11.000   1.2348   0.02502   0.01810  -0.0231   0.0123   1.0000
  12.000   1.2741   0.02948   0.02292  -0.0163   0.0122   1.0000
 -11.000  -0.9009   0.02914   0.02443  -0.0480   1.0000   0.0124
  -9.000  -0.8212   0.01671   0.01038  -0.0299   0.9979   0.0150
  -8.000  -0.6839   0.02228   0.01699  -0.0376   0.9902   0.0370
  -7.000  -0.5571   0.01772   0.01191  -0.0433   0.9743   0.0389
  -6.000  -0.4267   0.01433   0.00815  -0.0488   0.9619   0.0403
  -5.000  -0.2956   0.01188   0.00535  -0.0539   0.9477   0.0390
  -4.000  -0.1809   0.01040   0.00361  -0.0546   0.9212   0.0400
  -3.000  -0.0681   0.00894   0.00264  -0.0555   0.8936   0.1374
  -2.000   0.0363   0.00810   0.00212  -0.0543   0.8349   0.2368
  -1.000   0.1403   0.00774   0.00169  -0.0529   0.7224   0.3283
   0.000   0.2407   0.00723   0.00164  -0.0514   0.6312   0.5450
   1.000   0.3399   0.00679   0.00187  -0.0490   0.5710   0.7937
   2.000   0.4895   0.00729   0.00231  -0.0569   0.4922   0.9873
   3.000   0.6095   0.00802   0.00256  -0.0599   0.4013   1.0000
   4.000   0.7016   0.00876   0.00295  -0.0569   0.3356   1.0000
   5.000   0.7815   0.01048   0.00380  -0.0519   0.1971   1.0000
   6.000   0.8567   0.01335   0.00569  -0.0462   0.0416   1.0000
   7.000   0.9485   0.01495   0.00750  -0.0432   0.0398   1.0000
   8.000   1.0353   0.01692   0.00956  -0.0397   0.0357   1.0000
   9.000   1.1286   0.01800   0.01076  -0.0384   0.0202   1.0000
  10.000   1.1979   0.02075   0.01344  -0.0329   0.0127   1.0000
  11.000   1.2348   0.02502   0.01810  -0.0231   0.0123   1.0000
  12.000   1.2741   0.02948   0.02292  -0.0163   0.0122   1.0000
 -11.000  -0.9009   0.02914   0.02443  -0.0480   1.0000   0.0124
  -9.000  -0.8212   0.01671   0.01038  -0.0299   0.9979   0.0150
  -8.000  -0.6839   0.02228   0.01699  -0.0376   0.9902   0.0370
  -7.000  -0.5571   0.01772   0.01191  -0.0433   0.9743   0.0389
  -6.000  -0.4267   0.01433   0.00815  -0.0488   0.9619   0.0403
  -5.000  -0.2956   0.01188   0.00535  -0.0539   0.9477   0.0390
  -4.000  -0.1809   0.01040   0.00361  -0.0546   0.9212   0.0400
  -3.000  -0.0681   0.00894   0.00264  -0.0555   0.8936   0.1374
  -2.000   0.0363   0.00810   0.00212  -0.0543   0.8349   0.2368
  -1.000   0.1403   0.00774   0.00169  -0.0529   0.7224   0.3283
   0.000   0.2407   0.00723   0.00164  -0.0514   0.6312   0.5450
   1.000   0.3399   0.00679   0.00187  -0.0490   0.5710   0.7937
   2.000   0.4895   0.00729   0.00231  -0.0569   0.4922   0.9873
   3.000   0.6095   0.00802   0.00256  -0.0599   0.4013   1.0000
   4.000   0.7016   0.00876   0.00295  -0.0569   0.3356   1.0000
   5.000   0.7815   0.01048   0.00380  -0.0519   0.1971   1.0000
   6.000   0.8567   0.01335   0.00569  -0.0462   0.0416   1.0000
   7.000   0.9485   0.01495   0.00750  -0.0432   0.0398   1.0000
   8.000   1.0353   0.01692   0.00956  -0.0397   0.0357   1.0000
   9.000   1.1286   0.01800   0.01076  -0.0384   0.0202   1.0000
  10.000   1.1979   0.02075   0.01344  -0.0329   0.0127   1.0000
  11.000   1.2348   0.02502   0.01810  -0.0231   0.0123   1.0000
  12.000   1.2741   0.02948   0.02292  -0.0163   0.0122   1.0000
 -11.000  -0.9009   0.02914   0.02443  -0.0480   1.0000   0.0124
  -9.000  -0.8212   0.01671   0.01038  -0.0299   0.9979   0.0150
  -8.000  -0.6839   0.02228   0.01699  -0.0376   0.9902   0.0370
  -7.000  -0.5571   0.01772   0.01191  -0.0433   0.9743   0.0389
  -6.000  -0.4267   0.01433   0.00815  -0.0488   0.9619   0.0403
  -5.000  -0.2956   0.01188   0.00535  -0.0539   0.9477   0.0390
  -4.000  -0.1809   0.01040   0.00361  -0.0546   0.9212   0.0400
  -3.000  -0.0681   0.00894   0.00264  -0.0555   0.8936   0.1374
  -2.000   0.0363   0.00810   0.00212  -0.0543   0.8349   0.2368
  -1.000   0.1403   0.00774   0.00169  -0.0529   0.7224   0.3283
   0.000   0.2407   0.00723   0.00164  -0.0514   0.6312   0.5450
   1.000   0.3399   0.00679   0.00187  -0.0490   0.5710   0.7937
   2.000   0.4895   0.00729   0.00231  -0.0569   0.4922   0.9873
   3.000   0.6095   0.00802   0.00256  -0.0599   0.4013   1.0000
   4.000   0.7016   0.00876   0.00295  -0.0569   0.3356   1.0000
   5.000   0.7815   0.01048   0.00380  -0.0519   0.1971   1.0000
   6.000   0.8567   0.01335   0.00569  -0.0462   0.0416   1.0000
   7.000   0.9485   0.01495   0.00750  -0.0432   0.0398   1.0000
   8.000   1.0353   0.01692   0.00956  -0.0397   0.0357   1.0000
   9.000   1.1286   0.01800   0.01076  -0.0384   0.0202   1.0000
  10.000   1.1979   0.02075   0.01344  -0.0329   0.0127   1.0000
  11.000   1.2348   0.02502   0.01810  -0.0231   0.0123   1.0000
  12.000   1.2741   0.02948   0.02292  -0.0163   0.0122   1.0000
 -11.000  -0.9009   0.02914   0.02443  -0.0480   1.0000   0.0124
  -9.000  -0.8212   0.01671   0.01038  -0.0299   0.9979   0.0150
  -8.000  -0.6839   0.02228   0.01699  -0.0376   0.9902   0.0370
  -7.000  -0.5571   0.01772   0.01191  -0.0433   0.9743   0.0389
  -6.000  -0.4267   0.01433   0.00815  -0.0488   0.9619   0.0403
  -5.000  -0.2956   0.01188   0.00535  -0.0539   0.9477   0.0390
  -4.000  -0.1809   0.01040   0.00361  -0.0546   0.9212   0.0400
  -3.000  -0.0681   0.00894   0.00264  -0.0555   0.8936   0.1374
  -2.000   0.0363   0.00810   0.00212  -0.0543   0.8349   0.2368
  -1.000   0.1403   0.00774   0.00169  -0.0529   0.7224   0.3283
   0.000   0.2407   0.00723   0.00164  -0.0514   0.6312   0.5450
   1.000   0.3399   0.00679   0.00187  -0.0490   0.5710   0.7937
   2.000   0.4895   0.00729   0.00231  -0.0569   0.4922   0.9873
   3.000   0.6095   0.00802   0.00256  -0.0599   0.4013   1.0000
   4.000   0.7016   0.00876   0.00295  -0.0569   0.3356   1.0000
   5.000   0.7815   0.01048   0.00380  -0.0519   0.1971   1.0000
   6.000   0.8567   0.01335   0.00569  -0.0462   0.0416   1.0000
   7.000   0.9485   0.01495   0.00750  -0.0432   0.0398   1.0000
   8.000   1.0353   0.01692   0.00956  -0.0397   0.0357   1.0000
   9.000   1.1286   0.01800   0.01076  -0.0384   0.0202   1.0000
  10.000   1.1979   0.02075   0.01344  -0.0329   0.0127   1.0000
  11.000   1.2348   0.02502   0.01810  -0.0231   0.0123   1.0000
  12.000   1.2741   0.02948   0.02292  -0.0163   0.0122   1.0000
 -11.000  -0.9009   0.02914   0.02443  -0.0480   1.0000   0.0124
  -9.000  -0.8212   0.01671   0.01038  -0.0299   0.9979   0.0150
  -8.000  -0.6839   0.02228   0.01699  -0.0376   0.9902   0.0370
  -7.000  -0.5571   0.01772   0.01191  -0.0433   0.9743   0.0389
  -6.000  -0.4267   0.01433   0.00815  -0.0488   0.9619   0.0403
  -5.000  -0.2956   0.01188   0.00535  -0.0539   0.9477   0.0390
  -4.000  -0.1809   0.01040   0.00361  -0.0546   0.9212   0.0400
  -3.000  -0.0681   0.00894   0.00264  -0.0555   0.8936   0.1374
  -2.000   0.0363   0.00810   0.00212  -0.0543   0.8349   0.2368
  -1.000   0.1403   0.00774   0.00169  -0.0529   0.7224   0.3283
   0.000   0.2407   0.00723   0.00164  -0.0514   0.6312   0.5450
   1.000   0.3399   0.00679   0.00187  -0.0490   0.5710   0.7937
   2.000   0.4895   0.00729   0.00231  -0.0569   0.4922   0.9873
   3.000   0.6095   0.00802   0.00256  -0.0599   0.4013   1.0000
   4.000   0.7016   0.00876   0.00295  -0.0569   0.3356   1.0000
   5.000   0.7815   0.01048   0.00380  -0.0519   0.1971   1.0000
   6.000   0.8567   0.01335   0.00569  -0.0462   0.0416   1.0000
   7.000   0.9485   0.01495   0.00750  -0.0432   0.0398   1.0000
   8.000   1.0353   0.01692   0.00956  -0.0397   0.0357   1.0000
   9.000   1.1286   0.01800   0.01076  -0.0384   0.0202   1.0000
  10.000   1.1979   0.02075   0.01344  -0.0329   0.0127   1.0000
  11.000   1.2348   0.02502   0.01810  -0.0231   0.0123   1.0000
  12.000   1.2741   0.02948   0.02292  -0.0163   0.0122   1.0000
 -11.000  -0.9009   0.02914   0.02443  -0.0480   1.0000   0.0124
  -9.000  -0.8212   0.01671   0.01038  -0.0299   0.9979   0.0150
  -8.000  -0.6839   0.02228   0.01699  -0.0376   0.9902   0.0370
  -7.000  -0.5571   0.01772   0.01191  -0.0433   0.9743   0.0389
  -6.000  -0.4267   0.01433   0.00815  -0.0488   0.9619   0.0403
  -5.000  -0.2956   0.01188   0.00535  -0.0539   0.9477   0.0390
  -4.000  -0.1809   0.01040   0.00361  -0.0546   0.9212   0.0400
  -3.000  -0.0681   0.00894   0.00264  -0.0555   0.8936   0.1374
  -2.000   0.0363   0.00810   0.00212  -0.0543   0.8349   0.2368
  -1.000   0.1403   0.00774   0.00169  -0.0529   0.7224   0.3283
   0.000   0.2407   0.00723   0.00164  -0.0514   0.6312   0.5450
   1.000   0.3399   0.00679   0.00187  -0.0490   0.5710   0.7937
   2.000   0.4895   0.00729   0.00231  -0.0569   0.4922   0.9873
   3.000   0.6095   0.00802   0.00256  -0.0599   0.4013   1.0000
   4.000   0.7016   0.00876   0.00295  -0.0569   0.3356   1.0000
   5.000   0.7815   0.01048   0.00380  -0.0519   0.1971   1.0000
   6.000   0.8567   0.01335   0.00569  -0.0462   0.0416   1.0000
   7.000   0.9485   0.01495   0.00750  -0.0432   0.0398   1.0000
   8.000   1.0353   0.01692   0.00956  -0.0397   0.0357   1.0000
   9.000   1.1286   0.01800   0.01076  -0.0384   0.0202   1.0000
  10.000   1.1979   0.02075   0.01344  -0.0329   0.0127   1.0000
  11.000   1.2348   0.02502   0.01810  -0.0231   0.0123   1.0000
  12.000   1.2741   0.02948   0.02292  -0.0163   0.0122   1.0000
 -11.000  -0.9009   0.02914   0.02443  -0.0480   1.0000   0.0124
  -9.000  -0.8212   0.01671   0.01038  -0.0299   0.9979   0.0150
  -8.000  -0.6839   0.02228   0.01699  -0.0376   0.9902   0.0370
  -7.000  -0.5571   0.01772   0.01191  -0.0433   0.9743   0.0389
  -6.000  -0.4267   0.01433   0.00815  -0.0488   0.9619   0.0403
  -5.000  -0.2956   0.01188   0.00535  -0.0539   0.9477   0.0390
  -4.000  -0.1809   0.01040   0.00361  -0.0546   0.9212   0.0400
  -3.000  -0.0681   0.00894   0.00264  -0.0555   0.8936   0.1374
  -2.000   0.0363   0.00810   0.00212  -0.0543   0.8349   0.2368
  -1.000   0.1403   0.00774   0.00169  -0.0529   0.7224   0.3283
   0.000   0.2407   0.00723   0.00164  -0.0514   0.6312   0.5450
   1.000   0.3399   0.00679   0.00187  -0.0490   0.5710   0.7937
   2.000   0.4895   0.00729   0.00231  -0.0569   0.4922   0.9873
   3.000   0.6095   0.00802   0.00256  -0.0599   0.4013   1.0000
   4.000   0.7016   0.00876   0.00295  -0.0569   0.3356   1.0000
   5.000   0.7815   0.01048   0.00380  -0.0519   0.1971   1.0000
   6.000   0.8567   0.01335   0.00569  -0.0462   0.0416   1.0000
   7.000   0.9485   0.01495   0.00750  -0.0432   0.0398   1.0000
   8.000   1.0353   0.01692   0.00956  -0.0397   0.0357   1.0000
   9.000   1.1286   0.01800   0.01076  -0.0384   0.0202   1.0000
  10.000   1.1979   0.02075   0.01344  -0.0329   0.0127   1.0000
  11.000   1.2348   0.02502   0.01810  -0.0231   0.0123   1.0000
  12.000   1.2741   0.02948   0.02292  -0.0163   0.0122   1.0000
 -11.000  -0.9009   0.02914   0.02443  -0.0480   1.0000   0.0124
  -9.000  -0.8212   0.01671   0.01038  -0.0299   0.9979   0.0150
  -8.000  -0.6839   0.02228   0.01699  -0.0376   0.9902   0.0370
  -7.000  -0.5571   0.01772   0.01191  -0.0433   0.9743   0.0389
  -6.000  -0.4267   0.01433   0.00815  -0.0488   0.9619   0.0403
  -5.000  -0.2956   0.01188   0.00535  -0.0539   0.9477   0.0390
  -4.000  -0.1809   0.01040   0.00361  -0.0546   0.9212   0.0400
  -3.000  -0.0681   0.00894   0.00264  -0.0555   0.8936   0.1374
  -2.000   0.0363   0.00810   0.00212  -0.0543   0.8349   0.2368
  -1.000   0.1403   0.00774   0.00169  -0.0529   0.7224   0.3283
   0.000   0.2407   0.00723   0.00164  -0.0514   0.6312   0.5450
   1.000   0.3399   0.00679   0.00187  -0.0490   0.5710   0.7937
   2.000   0.4895   0.00729   0.00231  -0.0569   0.4922   0.9873
   3.000   0.6095   0.00802   0.00256  -0.0599   0.4013   1.0000
   4.000   0.7016   0.00876   0.00295  -0.0569   0.3356   1.0000
   5.000   0.7815   0.01048   0.00380  -0.0519   0.1971   1.0000
   6.000   0.8567   0.01335   0.00569  -0.0462   0.0416   1.0000
   7.000   0.9485   0.01495   0.00750  -0.0432   0.0398   1.0000
   8.000   1.0353   0.01692   0.00956  -0.0397   0.0357   1.0000
   9.000   1.1286   0.01800   0.01076  -0.0384   0.0202   1.0000
  10.000   1.1979   0.02075   0.01344  -0.0329   0.0127   1.0000
  11.000   1.2348   0.02502   0.01810  -0.0231   0.0123   1.0000
  12.000   1.2741   0.02948   0.02292  -0.0163   0.0122   1.0000
 -11.000  -0.9009   0.02914   0.02443  -0.0480   1.0000   0.0124
  -9.000  -0.8212   0.01671   0.01038  -0.0299   0.9979   0.0150
  -8.000  -0.6839   0.02228   0.01699  -0.0376   0.9902   0.0370
  -7.000  -0.5571   0.01772   0.01191  -0.0433   0.9743   0.0389
  -6.000  -0.4267   0.01433   0.00815  -0.0488   0.9619   0.0403
  -5.000  -0.2956   0.01188   0.00535  -0.0539   0.9477   0.0390
  -4.000  -0.1809   0.01040   0.00361  -0.0546   0.9212   0.0400
  -3.000  -0.0681   0.00894   0.00264  -0.0555   0.8936   0.1374
  -2.000   0.0363   0.00810   0.00212  -0.0543   0.8349   0.2368
  -1.000   0.1403   0.00774   0.00169  -0.0529   0.7224   0.3283
   0.000   0.2407   0.00723   0.00164  -0.0514   0.6312   0.5450
   1.000   0.3399   0.00679   0.00187  -0.0490   0.5710   0.7937
   2.000   0.4895   0.00729   0.00231  -0.0569   0.4922   0.9873
   3.000   0.6095   0.00802   0.00256  -0.0599   0.4013   1.0000
   4.000   0.7016   0.00876   0.00295  -0.0569   0.3356   1.0000
   5.000   0.7815   0.01048   0.00380  -0.0519   0.1971   1.0000
   6.000   0.8567   0.01335   0.00569  -0.0462   0.0416   1.0000
   7.000   0.9485   0.01495   0.00750  -0.0432   0.0398   1.0000
   8.000   1.0353   0.01692   0.00956  -0.0397   0.0357   1.0000
   9.000   1.1286   0.01800   0.01076  -0.0384   0.0202   1.0000
  10.000   1.1979   0.02075   0.01344  -0.0329   0.0127   1.0000
  11.000   1.2348   0.02502   0.01810  -0.0231   0.0123   1.0000
  12.000   1.2741   0.02948   0.02292  -0.0163   0.0122   1.0000
 -11.000  -0.9009   0.02914   0.02443  -0.0480   1.0000   0.0124
  -9.000  -0.8212   0.01671   0.01038  -0.0299   0.9979   0.0150
  -8.000  -0.6839   0.02228   0.01699  -0.0376   0.9902   0.0370
  -7.000  -0.5571   0.01772   0.01191  -0.0433   0.9743   0.0389
  -6.000  -0.4267   0.01433   0.00815  -0.0488   0.9619   0.0403
  -5.000  -0.2956   0.01188   0.00535  -0.0539   0.9477   0.0390
  -4.000  -0.1809   0.01040   0.00361  -0.0546   0.9212   0.0400
  -3.000  -0.0681   0.00894   0.00264  -0.0555   0.8936   0.1374
  -2.000   0.0363   0.00810   0.00212  -0.0543   0.8349   0.2368
  -1.000   0.1403   0.00774   0.00169  -0.0529   0.7224   0.3283
   0.000   0.2407   0.00723   0.00164  -0.0514   0.6312   0.5450
   1.000   0.3399   0.00679   0.00187  -0.0490   0.5710   0.7937
   2.000   0.4895   0.00729   0.00231  -0.0569   0.4922   0.9873
   3.000   0.6095   0.00802   0.00256  -0.0599   0.4013   1.0000
   4.000   0.7016   0.00876   0.00295  -0.0569   0.3356   1.0000
   5.000   0.7815   0.01048   0.00380  -0.0519   0.1971   1.0000
   6.000   0.8567   0.01335   0.00569  -0.0462   0.0416   1.0000
   7.000   0.9485   0.01495   0.00750  -0.0432   0.0398   1.0000
   8.000   1.0353   0.01692   0.00956  -0.0397   0.0357   1.0000
   9.000   1.1286   0.01800   0.01076  -0.0384   0.0202   1.0000
  10.000   1.1979   0.02075   0.01344  -0.0329   0.0127   1.0000
  11.000   1.2348   0.02502   0.01810  -0.0231   0.0123   1.0000
  12.000   1.2741   0.02948   0.02292  -0.0163   0.0122   1.0000
 -11.000  -0.9009   0.02914   0.02443  -0.0480   1.0000   0.0124
  -9.000  -0.8212   0.01671   0.01038  -0.0299   0.9979   0.0150
  -8.000  -0.6839   0.02228   0.01699  -0.0376   0.9902   0.0370
  -7.000  -0.5571   0.01772   0.01191  -0.0433   0.9743   0.0389
  -6.000  -0.4267   0.01433   0.00815  -0.0488   0.9619   0.0403
  -5.000  -0.2956   0.01188   0.00535  -0.0539   0.9477   0.0390
  -4.000  -0.1809   0.01040   0.00361  -0.0546   0.9212   0.0400
  -3.000  -0.0681   0.00894   0.00264  -0.0555   0.8936   0.1374
  -2.000   0.0363   0.00810   0.00212  -0.0543   0.8349   0.2368
  -1.000   0.1403   0.00774   0.00169  -0.0529   0.7224   0.3283
   0.000   0.2407   0.00723   0.00164  -0.0514   0.6312   0.5450
   1.000   0.3399   0.00679   0.00187  -0.0490   0.5710   0.7937
   2.000   0.4895   0.00729   0.00231  -0.0569   0.4922   0.9873
   3.000   0.6095   0.00802   0.00256  -0.0599   0.4013   1.0000
   4.000   0.7016   0.00876   0.00295  -0.0569   0.3356   1.0000
   5.000   0.7815   0.01048   0.00380  -0.0519   0.1971   1.0000
   6.000   0.8567   0.01335   0.00569  -0.0462   0.0416   1.0000
   7.000   0.9485   0.01495   0.00750  -0.0432   0.0398   1.0000
   8.000   1.0353   0.01692   0.00956  -0.0397   0.0357   1.0000
   9.000   1.1286   0.01800   0.01076  -0.0384   0.0202   1.0000
  10.000   1.1979   0.02075   0.01344  -0.0329   0.0127   1.0000
  11.000   1.2348   0.02502   0.01810  -0.0231   0.0123   1.0000
  12.000   1.2741   0.02948   0.02292  -0.0163   0.0122   1.0000
 -11.000  -0.9009   0.02914   0.02443  -0.0480   1.0000   0.0124
  -9.000  -0.8212   0.01671   0.01038  -0.0299   0.9979   0.0150
  -8.000  -0.6839   0.02228   0.01699  -0.0376   0.9902   0.0370
  -7.000  -0.5571   0.01772   0.01191  -0.0433   0.9743   0.0389
  -6.000  -0.4267   0.01433   0.00815  -0.0488   0.9619   0.0403
  -5.000  -0.2956   0.01188   0.00535  -0.0539   0.9477   0.0390
  -4.000  -0.1809   0.01040   0.00361  -0.0546   0.9212   0.0400
  -3.000  -0.0681   0.00894   0.00264  -0.0555   0.8936   0.1374
  -2.000   0.0363   0.00810   0.00212  -0.0543   0.8349   0.2368
  -1.000   0.1403   0.00774   0.00169  -0.0529   0.7224   0.3283
   0.000   0.2407   0.00723   0.00164  -0.0514   0.6312   0.5450
   1.000   0.3399   0.00679   0.00187  -0.0490   0.5710   0.7937
   2.000   0.4895   0.00729   0.00231  -0.0569   0.4922   0.9873
   3.000   0.6095   0.00802   0.00256  -0.0599   0.4013   1.0000
   4.000   0.7016   0.00876   0.00295  -0.0569   0.3356   1.0000
   5.000   0.7815   0.01048   0.00380  -0.0519   0.1971   1.0000
   6.000   0.8567   0.01335   0.00569  -0.0462   0.0416   1.0000
   7.000   0.9485   0.01495   0.00750  -0.0432   0.0398   1.0000
   8.000   1.0353   0.01692   0.00956  -0.0397   0.0357   1.0000
   9.000   1.1286   0.01800   0.01076  -0.0384   0.0202   1.0000
  10.000   1.1979   0.02075   0.01344  -0.0329   0.0127   1.0000
  11.000   1.2348   0.02502   0.01810  -0.0231   0.0123   1.0000
  12.000   1.2741   0.02948   0.02292  -0.0163   0.0122   1.0000
 -11.000  -0.9009   0.02914   0.02443  -0.0480   1.0000   0.0124
  -9.000  -0.8212   0.01671   0.01038  -0.0299   0.9979   0.0150
  -8.000  -0.6839   0.02228   0.01699  -0.0376   0.9902   0.0370
  -7.000  -0.5571   0.01772   0.01191  -0.0433   0.9743   0.0389
  -6.000  -0.4267   0.01433   0.00815  -0.0488   0.9619   0.0403
  -5.000  -0.2956   0.01188   0.00535  -0.0539   0.9477   0.0390
  -4.000  -0.1809   0.01040   0.00361  -0.0546   0.9212   0.0400
  -3.000  -0.0681   0.00894   0.00264  -0.0555   0.8936   0.1374
  -2.000   0.0363   0.00810   0.00212  -0.0543   0.8349   0.2368
  -1.000   0.1403   0.00774   0.00169  -0.0529   0.7224   0.3283
   0.000   0.2407   0.00723   0.00164  -0.0514   0.6312   0.5450
   1.000   0.3399   0.00679   0.00187  -0.0490   0.5710   0.7937
   2.000   0.4895   0.00729   0.00231  -0.0569   0.4922   0.9873
   3.000   0.6095   0.00802   0.00256  -0.0599   0.4013   1.0000
   4.000   0.7016   0.00876   0.00295  -0.0569   0.3356   1.0000
   5.000   0.7815   0.01048   0.00380  -0.0519   0.1971   1.0000
   6.000   0.8567   0.01335   0.00569  -0.0462   0.0416   1.0000
   7.000   0.9485   0.01495   0.00750  -0.0432   0.0398   1.0000
   8.000   1.0353   0.01692   0.00956  -0.0397   0.0357   1.0000
   9.000   1.1286   0.01800   0.01076  -0.0384   0.0202   1.0000
  10.000   1.1979   0.02075   0.01344  -0.0329   0.0127   1.0000
  11.000   1.2348   0.02502   0.01810  -0.0231   0.0123   1.0000
  12.000   1.2741   0.02948   0.02292  -0.0163   0.0122   1.0000
 -11.000  -0.9009   0.02914   0.02443  -0.0480   1.0000   0.0124
  -9.000  -0.8212   0.01671   0.01038  -0.0299   0.9979   0.0150
  -8.000  -0.6839   0.02228   0.01699  -0.0376   0.9902   0.0370
  -7.000  -0.5571   0.01772   0.01191  -0.0433   0.9743   0.0389
  -6.000  -0.4267   0.01433   0.00815  -0.0488   0.9619   0.0403
  -5.000  -0.2956   0.01188   0.00535  -0.0539   0.9477   0.0390
  -4.000  -0.1809   0.01040   0.00361  -0.0546   0.9212   0.0400
  -3.000  -0.0681   0.00894   0.00264  -0.0555   0.8936   0.1374
  -2.000   0.0363   0.00810   0.00212  -0.0543   0.8349   0.2368
  -1.000   0.1403   0.00774   0.00169  -0.0529   0.7224   0.3283
   0.000   0.2407   0.00723   0.00164  -0.0514   0.6312   0.5450
   1.000   0.3399   0.00679   0.00187  -0.0490   0.5710   0.7937
   2.000   0.4895   0.00729   0.00231  -0.0569   0.4922   0.9873
   3.000   0.6095   0.00802   0.00256  -0.0599   0.4013   1.0000
   4.000   0.7016   0.00876   0.00295  -0.0569   0.3356   1.0000
   5.000   0.7815   0.01048   0.00380  -0.0519   0.1971   1.0000
   6.000   0.8567   0.01335   0.00569  -0.0462   0.0416   1.0000
   7.000   0.9485   0.01495   0.00750  -0.0432   0.0398   1.0000
   8.000   1.0353   0.01692   0.00956  -0.0397   0.0357   1.0000
   9.000   1.1286   0.01800   0.01076  -0.0384   0.0202   1.0000
  10.000   1.1979   0.02075   0.01344  -0.0329   0.0127   1.0000
  11.000   1.2348   0.02502   0.01810  -0.0231   0.0123   1.0000
  12.000   1.2741   0.02948   0.02292  -0.0163   0.0122   1.0000
 -11.000  -0.9009   0.02914   0.02443  -0.0480   1.0000   0.0124
  -9.000  -0.8212   0.01671   0.01038  -0.0299   0.9979   0.0150
  -8.000  -0.6839   0.02228   0.01699  -0.0376   0.9902   0.0370
  -7.000  -0.5571   0.01772   0.01191  -0.0433   0.9743   0.0389
  -6.000  -0.4267   0.01433   0.00815  -0.0488   0.9619   0.0403
  -5.000  -0.2956   0.01188   0.00535  -0.0539   0.9477   0.0390
  -4.000  -0.1809   0.01040   0.00361  -0.0546   0.9212   0.0400
  -3.000  -0.0681   0.00894   0.00264  -0.0555   0.8936   0.1374
  -2.000   0.0363   0.00810   0.00212  -0.0543   0.8349   0.2368
  -1.000   0.1403   0.00774   0.00169  -0.0529   0.7224   0.3283
   0.000   0.2407   0.00723   0.00164  -0.0514   0.6312   0.5450
   1.000   0.3399   0.00679   0.00187  -0.0490   0.5710   0.7937
   2.000   0.4895   0.00729   0.00231  -0.0569   0.4922   0.9873
   3.000   0.6095   0.00802   0.00256  -0.0599   0.4013   1.0000
   4.000   0.7016   0.00876   0.00295  -0.0569   0.3356   1.0000
   5.000   0.7815   0.01048   0.00380  -0.0519   0.1971   1.0000
   6.000   0.8567   0.01335   0.00569  -0.0462   0.0416   1.0000
   7.000   0.9485   0.01495   0.00750  -0.0432   0.0398   1.0000
   8.000   1.0353   0.01692   0.00956  -0.0397   0.0357   1.0000
   9.000   1.1286   0.01800   0.01076  -0.0384   0.0202   1.0000
  10.000   1.1979   0.02075   0.01344  -0.0329   0.0127   1.0000
  11.000   1.2348   0.02502   0.01810  -0.0231   0.0123   1.0000
  12.000   1.2741   0.02948   0.02292  -0.0163   0.0122   1.0000
 -11.000  -0.9009   0.02914   0.02443  -0.0480   1.0000   0.0124
  -9.000  -0.8212   0.01671   0.01038  -0.0299   0.9979   0.0150
  -8.000  -0.6839   0.02228   0.01699  -0.0376   0.9902   0.0370
  -7.000  -0.5571   0.01772   0.01191  -0.0433   0.9743   0.0389
  -6.000  -0.4267   0.01433   0.00815  -0.0488   0.9619   0.0403
  -5.000  -0.2956   0.01188   0.00535  -0.0539   0.9477   0.0390
  -4.000  -0.1809   0.01040   0.00361  -0.0546   0.9212   0.0400
  -3.000  -0.0681   0.00894   0.00264  -0.0555   0.8936   0.1374
  -2.000   0.0363   0.00810   0.00212  -0.0543   0.8349   0.2368
  -1.000   0.1403   0.00774   0.00169  -0.0529   0.7224   0.3283
   0.000   0.2407   0.00723   0.00164  -0.0514   0.6312   0.5450
   1.000   0.3399   0.00679   0.00187  -0.0490   0.5710   0.7937
   2.000   0.4895   0.00729   0.00231  -0.0569   0.4922   0.9873
   3.000   0.6095   0.00802   0.00256  -0.0599   0.4013   1.0000
   4.000   0.7016   0.00876   0.00295  -0.0569   0.3356   1.0000
   5.000   0.7815   0.01048   0.00380  -0.0519   0.1971   1.0000
   6.000   0.8567   0.01335   0.00569  -0.0462   0.0416   1.0000
   7.000   0.9485   0.01495   0.00750  -0.0432   0.0398   1.0000
   8.000   1.0353   0.01692   0.00956  -0.0397   0.0357   1.0000
   9.000   1.1286   0.01800   0.01076  -0.0384   0.0202   1.0000
  10.000   1.1979   0.02075   0.01344  -0.0329   0.0127   1.0000
  11.000   1.2348   0.02502   0.01810  -0.0231   0.0123   1.0000
  12.000   1.2741   0.02948   0.02292  -0.0163   0.0122   1.0000
 -11.000  -0.9009   0.02914   0.02443  -0.0480   1.0000   0.0124
  -9.000  -0.8212   0.01671   0.01038  -0.0299   0.9979   0.0150
  -8.000  -0.6839   0.02228   0.01699  -0.0376   0.9902   0.0370
  -7.000  -0.5571   0.01772   0.01191  -0.0433   0.9743   0.0389
  -6.000  -0.4267   0.01433   0.00815  -0.0488   0.9619   0.0403
  -5.000  -0.2956   0.01188   0.00535  -0.0539   0.9477   0.0390
  -4.000  -0.1809   0.01040   0.00361  -0.0546   0.9212   0.0400
  -3.000  -0.0681   0.00894   0.00264  -0.0555   0.8936   0.1374
  -2.000   0.0363   0.00810   0.00212  -0.0543   0.8349   0.2368
  -1.000   0.1403   0.00774   0.00169  -0.0529   0.7224   0.3283
   0.000   0.2407   0.00723   0.00164  -0.0514   0.6312   0.5450
   1.000   0.3399   0.00679   0.00187  -0.0490   0.5710   0.7937
   2.000   0.4895   0.00729   0.00231  -0.0569   0.4922   0.9873
   3.000   0.6095   0.00802   0.00256  -0.0599   0.4013   1.0000
   4.000   0.7016   0.00876   0.00295  -0.0569   0.3356   1.0000
   5.000   0.7815   0.01048   0.00380  -0.0519   0.1971   1.0000
   6.000   0.8567   0.01335   0.00569  -0.0462   0.0416   1.0000
   7.000   0.9485   0.01495   0.00750  -0.0432   0.0398   1.0000
   8.000   1.0353   0.01692   0.00956  -0.0397   0.0357   1.0000
   9.000   1.1286   0.01800   0.01076  -0.0384   0.0202   1.0000
  10.000   1.1979   0.02075   0.01344  -0.0329   0.0127   1.0000
  11.000   1.2348   0.02502   0.01810  -0.0231   0.0123   1.0000
  12.000   1.2741   0.02948   0.02292  -0.0163   0.0122   1.0000
 -11.000  -0.9009   0.02914   0.02443  -0.0480   1.0000   0.0124
  -9.000  -0.8212   0.01671   0.01038  -0.0299   0.9979   0.0150
  -8.000  -0.6839   0.02228   0.01699  -0.0376   0.9902   0.0370
  -7.000  -0.5571   0.01772   0.01191  -0.0433   0.9743   0.0389
  -6.000  -0.4267   0.01433   0.00815  -0.0488   0.9619   0.0403
  -5.000  -0.2956   0.01188   0.00535  -0.0539   0.9477   0.0390
  -4.000  -0.1809   0.01040   0.00361  -0.0546   0.9212   0.0400
  -3.000  -0.0681   0.00894   0.00264  -0.0555   0.8936   0.1374
  -2.000   0.0363   0.00810   0.00212  -0.0543   0.8349   0.2368
  -1.000   0.1403   0.00774   0.00169  -0.0529   0.7224   0.3283
   0.000   0.2407   0.00723   0.00164  -0.0514   0.6312   0.5450
   1.000   0.3399   0.00679   0.00187  -0.0490   0.5710   0.7937
   2.000   0.4895   0.00729   0.00231  -0.0569   0.4922   0.9873
   3.000   0.6095   0.00802   0.00256  -0.0599   0.4013   1.0000
   4.000   0.7016   0.00876   0.00295  -0.0569   0.3356   1.0000
   5.000   0.7815   0.01048   0.00380  -0.0519   0.1971   1.0000
   6.000   0.8567   0.01335   0.00569  -0.0462   0.0416   1.0000
   7.000   0.9485   0.01495   0.00750  -0.0432   0.0398   1.0000
   8.000   1.0353   0.01692   0.00956  -0.0397   0.0357   1.0000
   9.000   1.1286   0.01800   0.01076  -0.0384   0.0202   1.0000
  10.000   1.1979   0.02075   0.01344  -0.0329   0.0127   1.0000
  11.000   1.2348   0.02502   0.01810  -0.0231   0.0123   1.0000
  12.000   1.2741   0.02948   0.02292  -0.0163   0.0122   1.0000
 -11.000  -0.9009   0.02914   0.02443  -0.0480   1.0000   0.0124
  -9.000  -0.8212   0.01671   0.01038  -0.0299   0.9979   0.0150
  -8.000  -0.6839   0.02228   0.01699  -0.0376   0.9902   0.0370
  -7.000  -0.5571   0.01772   0.01191  -0.0433   0.9743   0.0389
  -6.000  -0.4267   0.01433   0.00815  -0.0488   0.9619   0.0403
  -5.000  -0.2956   0.01188   0.00535  -0.0539   0.9477   0.0390
  -4.000  -0.1809   0.01040   0.00361  -0.0546   0.9212   0.0400
  -3.000  -0.0681   0.00894   0.00264  -0.0555   0.8936   0.1374
  -2.000   0.0363   0.00810   0.00212  -0.0543   0.8349   0.2368
  -1.000   0.1403   0.00774   0.00169  -0.0529   0.7224   0.3283
   0.000   0.2407   0.00723   0.00164  -0.0514   0.6312   0.5450
   1.000   0.3399   0.00679   0.00187  -0.0490   0.5710   0.7937
   2.000   0.4895   0.00729   0.00231  -0.0569   0.4922   0.9873
   3.000   0.6095   0.00802   0.00256  -0.0599   0.4013   1.0000
   4.000   0.7016   0.00876   0.00295  -0.0569   0.3356   1.0000
   5.000   0.7815   0.01048   0.00380  -0.0519   0.1971   1.0000
   6.000   0.8567   0.01335   0.00569  -0.0462   0.0416   1.0000
   7.000   0.9485   0.01495   0.00750  -0.0432   0.0398   1.0000
   8.000   1.0353   0.01692   0.00956  -0.0397   0.0357   1.0000
   9.000   1.1286   0.01800   0.01076  -0.0384   0.0202   1.0000
  10.000   1.1979   0.02075   0.01344  -0.0329   0.0127   1.0000
  11.000   1.2348   0.02502   0.01810  -0.0231   0.0123   1.0000
  12.000   1.2741   0.02948   0.02292  -0.0163   0.0122   1.0000
  -2.000   0.0363   0.00810   0.00212  -0.0543   0.8349   0.2368
  -1.900   0.0471   0.00806   0.00205  -0.0543   0.8200   0.2444
  -1.800   0.0587   0.00804   0.00202  -0.0544   0.8039   0.2503
  -1.700   0.0689   0.00796   0.00199  -0.0543   0.7983   0.2621
  -1.600   0.0787   0.00785   0.00196  -0.0540   0.7949   0.2734
  -1.500   0.0887   0.00778   0.00193  -0.0538   0.7896   0.2831
  -1.400   0.0990   0.00773   0.00190  -0.0537   0.7817   0.2907
  -1.300   0.1095   0.00771   0.00185  -0.0535   0.7708   0.2965
  -1.200   0.1200   0.00771   0.00180  -0.0534   0.7572   0.3016
  -1.100   0.1304   0.00772   0.00175  -0.0532   0.7413   0.3136
  -1.000   0.1403   0.00774   0.00169  -0.0529   0.7223   0.3283
  -0.900   0.1507   0.00772   0.00166  -0.0528   0.7032   0.3435
  -0.800   0.1611   0.00766   0.00166  -0.0528   0.6973   0.3579
  -0.700   0.1716   0.00761   0.00166  -0.0527   0.6927   0.3716
  -0.600   0.1822   0.00757   0.00165  -0.0526   0.6869   0.3843
  -0.500   0.1927   0.00754   0.00164  -0.0526   0.6801   0.3962
  -0.400   0.2030   0.00748   0.00164  -0.0525   0.6720   0.4246
  -0.300   0.2124   0.00736   0.00163  -0.0522   0.6632   0.4604
  -0.200   0.2223   0.00732   0.00163  -0.0520   0.6535   0.4831
  -0.100   0.2322   0.00732   0.00163  -0.0518   0.6430   0.5001
   0.000   0.2407   0.00723   0.00164  -0.0514   0.6312   0.5450
   0.100   0.2495   0.00717   0.00165  -0.0509   0.6170   0.5794
   0.200   0.2595   0.00717   0.00166  -0.0507   0.6028   0.5974
   0.300   0.2693   0.00709   0.00169  -0.0505   0.5975   0.6302
   0.400   0.2783   0.00693   0.00174  -0.0500   0.5961   0.6772
   0.500   0.2889   0.00691   0.00176  -0.0500   0.5938   0.6931
   0.600   0.2997   0.00690   0.00177  -0.0499   0.5902   0.7068
   0.700   0.3095   0.00684   0.00180  -0.0496   0.5864   0.7340
   0.800   0.3193   0.00679   0.00183  -0.0493   0.5824   0.7575
   0.900   0.3295   0.00678   0.00185  -0.0491   0.5774   0.7776
   1.000   0.3399   0.00679   0.00187  -0.0490   0.5710   0.7937
   1.100   0.3494   0.00680   0.00190  -0.0486   0.5635   0.8221
   1.200   0.3586   0.00681   0.00196  -0.0480   0.5553   0.8599
   1.300   0.3684   0.00686   0.00201  -0.0476   0.5463   0.8863
   1.400   0.3785   0.00692   0.00204  -0.0474   0.5370   0.9024
   1.500   0.3951   0.00700   0.00211  -0.0485   0.5270   0.9282
   1.600   0.4080   0.00707   0.00217  -0.0488   0.5177   0.9465
   1.700   0.4284   0.00715   0.00221  -0.0508   0.5064   0.9603
   1.800   0.4509   0.00721   0.00225  -0.0533   0.4991   0.9720
   1.900   0.4712   0.00725   0.00228  -0.0553   0.4963   0.9808
   2.000   0.4895   0.00729   0.00231  -0.0569   0.4922   0.9873
  -2.000   0.0363   0.00810   0.00212  -0.0543   0.8349   0.2368
  -1.900   0.0471   0.00806   0.00205  -0.0543   0.8200   0.2444
  -1.800   0.0587   0.00804   0.00202  -0.0544   0.8039   0.2503
  -1.700   0.0689   0.00796   0.00199  -0.0543   0.7983   0.2621
  -1.600   0.0787   0.00785   0.00196  -0.0540   0.7949   0.2734
  -1.500   0.0887   0.00778   0.00193  -0.0538   0.7896   0.2831
  -1.400   0.0990   0.00773   0.00190  -0.0537   0.7817   0.2907
  -1.300   0.1095   0.00771   0.00185  -0.0535   0.7708   0.2965
  -1.200   0.1200   0.00771   0.00180  -0.0534   0.7572   0.3016
  -1.100   0.1304   0.00772   0.00175  -0.0532   0.7413   0.3136
  -1.000   0.1403   0.00774   0.00169  -0.0529   0.7223   0.3283
  -0.900   0.1507   0.00772   0.00166  -0.0528   0.7032   0.3435
  -0.800   0.1611   0.00766   0.00166  -0.0528   0.6973   0.3579
  -0.700   0.1716   0.00761   0.00166  -0.0527   0.6927   0.3716
  -0.600   0.1822   0.00757   0.00165  -0.0526   0.6869   0.3843
  -0.500   0.1927   0.00754   0.00164  -0.0526   0.6801   0.3962
  -0.400   0.2030   0.00748   0.00164  -0.0525   0.6720   0.4246
  -0.300   0.2124   0.00736   0.00163  -0.0522   0.6632   0.4604
  -0.200   0.2223   0.00732   0.00163  -0.0520   0.6535   0.4831
  -0.100   0.2322   0.00732   0.00163  -0.0518   0.6430   0.5001
   0.000   0.2407   0.00723   0.00164  -0.0514   0.6312   0.5450
   0.100   0.2495   0.00717   0.00165  -0.0509   0.6170   0.5794
   0.200   0.2595   0.00717   0.00166  -0.0507   0.6028   0.5974
   0.300   0.2693   0.00709   0.00169  -0.0505   0.5975   0.6302
   0.400   0.2783   0.00693   0.00174  -0.0500   0.5961   0.6772
   0.500   0.2889   0.00691   0.00176  -0.0500   0.5938   0.6931
   0.600   0.2997   0.00690   0.00177  -0.0499   0.5902   0.7068
   0.700   0.3095   0.00684   0.00180  -0.0496   0.5864   0.7340
   0.800   0.3193   0.00679   0.00183  -0.0493   0.5824   0.7575
   0.900   0.3295   0.00678   0.00185  -0.0491   0.5774   0.7776
   1.000   0.3399   0.00679   0.00187  -0.0490   0.5710   0.7937
   1.100   0.3494   0.00680   0.00190  -0.0486   0.5635   0.8221
   1.200   0.3586   0.00681   0.00196  -0.0480   0.5553   0.8599
   1.300   0.3684   0.00686   0.00201  -0.0476   0.5463   0.8863
   1.400   0.3785   0.00692   0.00204  -0.0474   0.5370   0.9024
   1.500   0.3951   0.00700   0.00211  -0.0485   0.5270   0.9282
   1.600   0.4080   0.00707   0.00217  -0.0488   0.5177   0.9465
   1.700   0.4284   0.00715   0.00221  -0.0508   0.5064   0.9603
   1.800   0.4509   0.00721   0.00225  -0.0533   0.4991   0.9720
   1.900   0.4712   0.00725   0.00228  -0.0553   0.4963   0.9808
   2.000   0.4895   0.00729   0.00231  -0.0569   0.4922   0.9873
  -2.000   0.0363   0.00810   0.00212  -0.0543   0.8349   0.2368
  -1.900   0.0471   0.00806   0.00205  -0.0543   0.8200   0.2444
  -1.800   0.0587   0.00804   0.00202  -0.0544   0.8039   0.2503
  -1.700   0.0689   0.00796   0.00199  -0.0543   0.7983   0.2621
  -1.600   0.0787   0.00785   0.00196  -0.0540   0.7949   0.2734
  -1.500   0.0887   0.00778   0.00193  -0.0538   0.7896   0.2831
  -1.400   0.0990   0.00773   0.00190  -0.0537   0.7817   0.2907
  -1.300   0.1095   0.00771   0.00185  -0.0535   0.7708   0.2965
  -1.200   0.1200   0.00771   0.00180  -0.0534   0.7572   0.3016
  -1.100   0.1304   0.00772   0.00175  -0.0532   0.7413   0.3136
  -1.000   0.1403   0.00774   0.00169  -0.0529   0.7223   0.3283
  -0.900   0.1507   0.00772   0.00166  -0.0528   0.7032   0.3435
  -0.800   0.1611   0.00766   0.00166  -0.0528   0.6973   0.3579
  -0.700   0.1716   0.00761   0.00166  -0.0527   0.6927   0.3716
  -0.600   0.1822   0.00757   0.00165  -0.0526   0.6869   0.3843
  -0.500   0.1927   0.00754   0.00164  -0.0526   0.6801   0.3962
  -0.400   0.2030   0.00748   0.00164  -0.0525   0.6720   0.4246
  -0.300   0.2124   0.00736   0.00163  -0.0522   0.6632   0.4604
  -0.200   0.2223   0.00732   0.00163  -0.0520   0.6535   0.4831
  -0.100   0.2322   0.00732   0.00163  -0.0518   0.6430   0.5001
   0.000   0.2407   0.00723   0.00164  -0.0514   0.6312   0.5450
   0.100   0.2495   0.00717   0.00165  -0.0509   0.6170   0.5794
   0.200   0.2595   0.00717   0.00166  -0.0507   0.6028   0.5974
   0.300   0.2693   0.00709   0.00169  -0.0505   0.5975   0.6302
   0.400   0.2783   0.00693   0.00174  -0.0500   0.5961   0.6772
   0.500   0.2889   0.00691   0.00176  -0.0500   0.5938   0.6931
   0.600   0.2997   0.00690   0.00177  -0.0499   0.5902   0.7068
   0.700   0.3095   0.00684   0.00180  -0.0496   0.5864   0.7340
   0.800   0.3193   0.00679   0.00183  -0.0493   0.5824   0.7575
   0.900   0.3295   0.00678   0.00185  -0.0491   0.5774   0.7776
   1.000   0.3399   0.00679   0.00187  -0.0490   0.5710   0.7937
   1.100   0.3494   0.00680   0.00190  -0.0486   0.5635   0.8221
   1.200   0.3586   0.00681   0.00196  -0.0480   0.5553   0.8599
   1.300   0.3684   0.00686   0.00201  -0.0476   0.5463   0.8863
   1.400   0.3785   0.00692   0.00204  -0.0474   0.5370   0.9024
   1.500   0.3951   0.00700   0.00211  -0.0485   0.5270   0.9282
   1.600   0.4080   0.00707   0.00217  -0.0488   0.5177   0.9465
   1.700   0.4284   0.00715   0.00221  -0.0508   0.5064   0.9603
   1.800   0.4509   0.00721   0.00225  -0.0533   0.4991   0.9720
   1.900   0.4712   0.00725   0.00228  -0.0553   0.4963   0.9808
   2.000   0.4895   0.00729   0.00231  -0.0569   0.4922   0.9873
  -2.000   0.0363   0.00810   0.00212  -0.0543   0.8349   0.2368
  -1.900   0.0471   0.00806   0.00205  -0.0543   0.8200   0.2444
  -1.800   0.0587   0.00804   0.00202  -0.0544   0.8039   0.2503
  -1.700   0.0689   0.00796   0.00199  -0.0543   0.7983   0.2621
  -1.600   0.0787   0.00785   0.00196  -0.0540   0.7949   0.2734
  -1.500   0.0887   0.00778   0.00193  -0.0538   0.7896   0.2831
  -1.400   0.0990   0.00773   0.00190  -0.0537   0.7817   0.2907
  -1.300   0.1095   0.00771   0.00185  -0.0535   0.7708   0.2965
  -1.200   0.1200   0.00771   0.00180  -0.0534   0.7572   0.3016
  -1.100   0.1304   0.00772   0.00175  -0.0532   0.7413   0.3136
  -1.000   0.1403   0.00774   0.00169  -0.0529   0.7223   0.3283
  -0.900   0.1507   0.00772   0.00166  -0.0528   0.7032   0.3435
  -0.800   0.1611   0.00766   0.00166  -0.0528   0.6973   0.3579
  -0.700   0.1716   0.00761   0.00166  -0.0527   0.6927   0.3716
  -0.600   0.1822   0.00757   0.00165  -0.0526   0.6869   0.3843
  -0.500   0.1927   0.00754   0.00164  -0.0526   0.6801   0.3962
  -0.400   0.2030   0.00748   0.00164  -0.0525   0.6720   0.4246
  -0.300   0.2124   0.00736   0.00163  -0.0522   0.6632   0.4604
  -0.200   0.2223   0.00732   0.00163  -0.0520   0.6535   0.4831
  -0.100   0.2322   0.00732   0.00163  -0.0518   0.6430   0.5001
   0.000   0.2407   0.00723   0.00164  -0.0514   0.6312   0.5450
   0.100   0.2495   0.00717   0.00165  -0.0509   0.6170   0.5794
   0.200   0.2595   0.00717   0.00166  -0.0507   0.6028   0.5974
   0.300   0.2693   0.00709   0.00169  -0.0505   0.5975   0.6302
   0.400   0.2783   0.00693   0.00174  -0.0500   0.5961   0.6772
   0.500   0.2889   0.00691   0.00176  -0.0500   0.5938   0.6931
   0.600   0.2997   0.00690   0.00177  -0.0499   0.5902   0.7068
   0.700   0.3095   0.00684   0.00180  -0.0496   0.5864   0.7340
   0.800   0.3193   0.00679   0.00183  -0.0493   0.5824   0.7575
   0.900   0.3295   0.00678   0.00185  -0.0491   0.5774   0.7776
   1.000   0.3399   0.00679   0.00187  -0.0490   0.5710   0.7937
   1.100   0.3494   0.00680   0.00190  -0.0486   0.5635   0.8221
   1.200   0.3586   0.00681   0.00196  -0.0480   0.5553   0.8599
   1.300   0.3684   0.00686   0.00201  -0.0476   0.5463   0.8863
   1.400   0.3785   0.00692   0.00204  -0.0474   0.5370   0.9024
   1.500   0.3951   0.00700   0.00211  -0.0485   0.5270   0.9282
   1.600   0.4080   0.00707   0.00217  -0.0488   0.5177   0.9465
   1.700   0.4284   0.00715   0.00221  -0.0508   0.5064   0.9603
   1.800   0.4509   0.00721   0.00225  -0.0533   0.4991   0.9720
   1.900   0.4712   0.00725   0.00228  -0.0553   0.4963   0.9808
   2.000   0.4895   0.00729   0.00231  -0.0569   0.4922   0.9873
  -2.000   0.0363   0.00810   0.00212  -0.0543   0.8349   0.2368
  -1.900   0.0471   0.00806   0.00205  -0.0543   0.8200   0.2444
  -1.800   0.0587   0.00804   0.00202  -0.0544   0.8039   0.2503
  -1.700   0.0689   0.00796   0.00199  -0.0543   0.7983   0.2621
  -1.600   0.0787   0.00785   0.00196  -0.0540   0.7949   0.2734
  -1.500   0.0887   0.00778   0.00193  -0.0538   0.7896   0.2831
  -1.400   0.0990   0.00773   0.00190  -0.0537   0.7817   0.2907
  -1.300   0.1095   0.00771   0.00185  -0.0535   0.7708   0.2965
  -1.200   0.1200   0.00771   0.00180  -0.0534   0.7572   0.3016
  -1.100   0.1304   0.00772   0.00175  -0.0532   0.7413   0.3136
  -1.000   0.1403   0.00774   0.00169  -0.0529   0.7223   0.3283
  -0.900   0.1507   0.00772   0.00166  -0.0528   0.7032   0.3435
  -0.800   0.1611   0.00766   0.00166  -0.0528   0.6973   0.3579
  -0.700   0.1716   0.00761   0.00166  -0.0527   0.6927   0.3716
  -0.600   0.1822   0.00757   0.00165  -0.0526   0.6869   0.3843
  -0.500   0.1927   0.00754   0.00164  -0.0526   0.6801   0.3962
  -0.400   0.2030   0.00748   0.00164  -0.0525   0.6720   0.4246
  -0.300   0.2124   0.00736   0.00163  -0.0522   0.6632   0.4604
  -0.200   0.2223   0.00732   0.00163  -0.0520   0.6535   0.4831
  -0.100   0.2322   0.00732   0.00163  -0.0518   0.6430   0.5001
   0.000   0.2407   0.00723   0.00164  -0.0514   0.6312   0.5450
   0.100   0.2495   0.00717   0.00165  -0.0509   0.6170   0.5794
   0.200   0.2595   0.00717   0.00166  -0.0507   0.6028   0.5974
   0.300   0.2693   0.00709   0.00169  -0.0505   0.5975   0.6302
   0.400   0.2783   0.00693   0.00174  -0.0500   0.5961   0.6772
   0.500   0.2889   0.00691   0.00176  -0.0500   0.5938   0.6931
   0.600   0.2997   0.00690   0.00177  -0.0499   0.5902   0.7068
   0.700   0.3095   0.00684   0.00180  -0.0496   0.5864   0.7340
   0.800   0.3193   0.00679   0.00183  -0.0493   0.5824   0.7575
   0.900   0.3295   0.00678   0.00185  -0.0491   0.5774   0.7776
   1.000   0.3399   0.00679   0.00187  -0.0490   0.5710   0.7937
   1.100   0.3494   0.00680   0.00190  -0.0486   0.5635   0.8221
   1.200   0.3586   0.00681   0.00196  -0.0480   0.5553   0.8599
   1.300   0.3684   0.00686   0.00201  -0.0476   0.5463   0.8863
   1.400   0.3785   0.00692   0.00204  -0.0474   0.5370   0.9024
   1.500   0.3951   0.00700   0.00211  -0.0485   0.5270   0.9282
   1.600   0.4080   0.00707   0.00217  -0.0488   0.5177   0.9465
   1.700   0.4284   0.00715   0.00221  -0.0508   0.5064   0.9603
   1.800   0.4509   0.00721   0.00225  -0.0533   0.4991   0.9720
   1.900   0.4712   0.00725   0.00228  -0.0553   0.4963   0.9808
   2.000   0.4895   0.00729   0.00231  -0.0569   0.4922   0.9873
  -2.000   0.0363   0.00810   0.00212  -0.0543   0.8349   0.2368
  -1.900   0.0471   0.00806   0.00205  -0.0543   0.8200   0.2444
  -1.800   0.0587   0.00804   0.00202  -0.0544   0.8039   0.2503
  -1.700   0.0689   0.00796   0.00199  -0.0543   0.7983   0.2621
  -1.600   0.0787   0.00785   0.00196  -0.0540   0.7949   0.2734
  -1.500   0.0887   0.00778   0.00193  -0.0538   0.7896   0.2831
  -1.400   0.0990   0.00773   0.00190  -0.0537   0.7817   0.2907
  -1.300   0.1095   0.00771   0.00185  -0.0535   0.7708   0.2965
  -1.200   0.1200   0.00771   0.00180  -0.0534   0.7572   0.3016
  -1.100   0.1304   0.00772   0.00175  -0.0532   0.7413   0.3136
  -1.000   0.1403   0.00774   0.00169  -0.0529   0.7223   0.3283
  -0.900   0.1507   0.00772   0.00166  -0.0528   0.7032   0.3435
  -0.800   0.1611   0.00766   0.00166  -0.0528   0.6973   0.3579
  -0.700   0.1716   0.00761   0.00166  -0.0527   0.6927   0.3716
  -0.600   0.1822   0.00757   0.00165  -0.0526   0.6869   0.3843
  -0.500   0.1927   0.00754   0.00164  -0.0526   0.6801   0.3962
  -0.400   0.2030   0.00748   0.00164  -0.0525   0.6720   0.4246
  -0.300   0.2124   0.00736   0.00163  -0.0522   0.6632   0.4604
  -0.200   0.2223   0.00732   0.00163  -0.0520   0.6535   0.4831
  -0.100   0.2322   0.00732   0.00163  -0.0518   0.6430   0.5001
   0.000   0.2407   0.00723   0.00164  -0.0514   0.6312   0.5450
   0.100   0.2495   0.00717   0.00165  -0.0509   0.6170   0.5794
   0.200   0.2595   0.00717   0.00166  -0.0507   0.6028   0.5974
   0.300   0.2693   0.00709   0.00169  -0.0505   0.5975   0.6302
   0.400   0.2783   0.00693   0.00174  -0.0500   0.5961   0.6772
   0.500   0.2889   0.00691   0.00176  -0.0500   0.5938   0.6931
   0.600   0.2997   0.00690   0.00177  -0.0499   0.5902   0.7068
   0.700   0.3095   0.00684   0.00180  -0.0496   0.5864   0.7340
   0.800   0.3193   0.00679   0.00183  -0.0493   0.5824   0.7575
   0.900   0.3295   0.00678   0.00185  -0.0491   0.5774   0.7776
   1.000   0.3399   0.00679   0.00187  -0.0490   0.5710   0.7937
   1.100   0.3494   0.00680   0.00190  -0.0486   0.5635   0.8221
   1.200   0.3586   0.00681   0.00196  -0.0480   0.5553   0.8599
   1.300   0.3684   0.00686   0.00201  -0.0476   0.5463   0.8863
   1.400   0.3785   0.00692   0.00204  -0.0474   0.5370   0.9024
   1.500   0.3951   0.00700   0.00211  -0.0485   0.5270   0.9282
   1.600   0.4080   0.00707   0.00217  -0.0488   0.5177   0.9465
   1.700   0.4284   0.00715   0.00221  -0.0508   0.5064   0.9603
   1.800   0.4509   0.00721   0.00225  -0.0533   0.4991   0.9720
   1.900   0.4712   0.00725   0.00228  -0.0553   0.4963   0.9808
   2.000   0.4895   0.00729   0.00231  -0.0569   0.4922   0.9873
  -2.000   0.0363   0.00810   0.00212  -0.0543   0.8349   0.2368
  -1.900   0.0471   0.00806   0.00205  -0.0543   0.8200   0.2444
  -1.800   0.0587   0.00804   0.00202  -0.0544   0.8039   0.2503
  -1.700   0.0689   0.00796   0.00199  -0.0543   0.7983   0.2621
  -1.600   0.0787   0.00785   0.00196  -0.0540   0.7949   0.2734
  -1.500   0.0887   0.00778   0.00193  -0.0538   0.7896   0.2831
  -1.400   0.0990   0.00773   0.00190  -0.0537   0.7817   0.2907
  -1.300   0.1095   0.00771   0.00185  -0.0535   0.7708   0.2965
  -1.200   0.1200   0.00771   0.00180  -0.0534   0.7572   0.3016
  -1.100   0.1304   0.00772   0.00175  -0.0532   0.7413   0.3136
  -1.000   0.1403   0.00774   0.00169  -0.0529   0.7223   0.3283
  -0.900   0.1507   0.00772   0.00166  -0.0528   0.7032   0.3435
  -0.800   0.1611   0.00766   0.00166  -0.0528   0.6973   0.3579
  -0.700   0.1716   0.00761   0.00166  -0.0527   0.6927   0.3716
  -0.600   0.1822   0.00757   0.00165  -0.0526   0.6869   0.3843
  -0.500   0.1927   0.00754   0.00164  -0.0526   0.6801   0.3962
  -0.400   0.2030   0.00748   0.00164  -0.0525   0.6720   0.4246
  -0.300   0.2124   0.00736   0.00163  -0.0522   0.6632   0.4604
  -0.200   0.2223   0.00732   0.00163  -0.0520   0.6535   0.4831
  -0.100   0.2322   0.00732   0.00163  -0.0518   0.6430   0.5001
   0.000   0.2407   0.00723   0.00164  -0.0514   0.6312   0.5450
   0.100   0.2495   0.00717   0.00165  -0.0509   0.6170   0.5794
   0.200   0.2595   0.00717   0.00166  -0.0507   0.6028   0.5974
   0.300   0.2693   0.00709   0.00169  -0.0505   0.5975   0.6302
   0.400   0.2783   0.00693   0.00174  -0.0500   0.5961   0.6772
   0.400   0.2783   0.00693   0.00174  -0.0500   0.5961   0.6772
   0.400   0.2783   0.00693   0.00174  -0.0500   0.5961   0.6772
   0.400   0.2783   0.00693   0.00174  -0.0500   0.5961   0.6772
   0.400   0.2783   0.00693   0.00174  -0.0500   0.5961   0.6772
   0.400   0.2783   0.00693   0.00174  -0.0500   0.5961   0.6772
   0.400   0.2783   0.00693   0.00174  -0.0500   0.5961   0.6772
   0.400   0.2783   0.00693   0.00174  -0.0500   0.5961   0.6772
   0.400   0.2783   0.00693   0.00174  -0.0500   0.5961   0.6772
   0.400   0.2783   0.00693   0.00174  -0.0500   0.5961   0.6772
   0.400   0.2783   0.00693   0.00174  -0.0500   0.5961   0.6772
   0.400   0.2783   0.00693   0.00174  -0.0500   0.5961   0.6772
   0.400   0.2783   0.00693   0.00174  -0.0500   0.5961   0.6772
   0.400   0.2783   0.00693   0.00174  -0.0500   0.5961   0.6772
   0.400   0.2783   0.00693   0.00174  -0.0500   0.5961   0.6772
   0.400   0.2783   0.00693   0.00174  -0.0500   0.5961   0.6772
   0.400   0.2783   0.00693   0.00174  -0.0500   0.5961   0.6772
  -2.000   0.0363   0.00810   0.00212  -0.0543   0.8349   0.2368
  -1.900   0.0471   0.00806   0.00205  -0.0543   0.8200   0.2444
  -1.800   0.0587   0.00804   0.00202  -0.0544   0.8039   0.2503
  -1.700   0.0689   0.00796   0.00199  -0.0543   0.7983   0.2621
  -1.600   0.0787   0.00785   0.00196  -0.0540   0.7949   0.2734
  -1.500   0.0887   0.00778   0.00193  -0.0538   0.7896   0.2831
  -1.400   0.0990   0.00773   0.00190  -0.0537   0.7817   0.2907
  -1.300   0.1095   0.00771   0.00185  -0.0535   0.7708   0.2965
  -1.200   0.1200   0.00771   0.00180  -0.0534   0.7572   0.3016
  -1.100   0.1304   0.00772   0.00175  -0.0532   0.7413   0.3136
  -1.000   0.1403   0.00774   0.00169  -0.0529   0.7223   0.3283
  -0.900   0.1507   0.00772   0.00166  -0.0528   0.7032   0.3435
  -0.800   0.1611   0.00766   0.00166  -0.0528   0.6973   0.3579
  -0.700   0.1716   0.00761   0.00166  -0.0527   0.6927   0.3716
  -0.600   0.1822   0.00757   0.00165  -0.0526   0.6869   0.3843
  -0.500   0.1927   0.00754   0.00164  -0.0526   0.6801   0.3962
  -0.400   0.2030   0.00748   0.00164  -0.0525   0.6720   0.4246
  -0.300   0.2124   0.00736   0.00163  -0.0522   0.6632   0.4604
  -0.200   0.2223   0.00732   0.00163  -0.0520   0.6535   0.4831
  -0.100   0.2322   0.00732   0.00163  -0.0518   0.6430   0.5001
   0.000   0.2407   0.00723   0.00164  -0.0514   0.6312   0.5450
   0.100   0.2495   0.00717   0.00165  -0.0509   0.6170   0.5794
   0.200   0.2595   0.00717   0.00166  -0.0507   0.6028   0.5974
   0.300   0.2693   0.00709   0.00169  -0.0505   0.5975   0.6302
   0.400   0.2783   0.00693   0.00174  -0.0500   0.5961   0.6772
   0.500   0.2889   0.00691   0.00176  -0.0500   0.5938   0.6931
   0.600   0.2997   0.00690   0.00177  -0.0499   0.5902   0.7068
   0.700   0.3095   0.00684   0.00180  -0.0496   0.5864   0.7340
   0.800   0.3193   0.00679   0.00183  -0.0493   0.5824   0.7575
   0.900   0.3295   0.00678   0.00185  -0.0491   0.5774   0.7776
   1.000   0.3399   0.00679   0.00187  -0.0490   0.5710   0.7937
   1.100   0.3494   0.00680   0.00190  -0.0486   0.5635   0.8221
   1.200   0.3586   0.00681   0.00196  -0.0480   0.5553   0.8599
   1.300   0.3684   0.00686   0.00201  -0.0476   0.5463   0.8863
   1.400   0.3785   0.00692   0.00204  -0.0474   0.5370   0.9024
   1.500   0.3951   0.00700   0.00211  -0.0485   0.5270   0.9282
   1.600   0.4080   0.00707   0.00217  -0.0488   0.5177   0.9465
   1.700   0.4284   0.00715   0.00221  -0.0508   0.5064   0.9603
   1.800   0.4509   0.00721   0.00225  -0.0533   0.4991   0.9720
   1.900   0.4712   0.00725   0.00228  -0.0553   0.4963   0.9808
   2.000   0.4895   0.00729   0.00231  -0.0569   0.4922   0.9873
  -2.000   0.0363   0.00810   0.00212  -0.0543   0.8349   0.2368
  -1.900   0.0471   0.00806   0.00205  -0.0543   0.8200   0.2444
  -1.800   0.0587   0.00804   0.00202  -0.0544   0.8039   0.2503
  -1.700   0.0689   0.00796   0.00199  -0.0543   0.7983   0.2621
  -1.600   0.0787   0.00785   0.00196  -0.0540   0.7949   0.2734
  -1.500   0.0887   0.00778   0.00193  -0.0538   0.7896   0.2831
  -1.400   0.0990   0.00773   0.00190  -0.0537   0.7817   0.2907
  -1.300   0.1095   0.00771   0.00185  -0.0535   0.7708   0.2965
  -1.200   0.1200   0.00771   0.00180  -0.0534   0.7572   0.3016
  -1.100   0.1304   0.00772   0.00175  -0.0532   0.7413   0.3136
  -1.000   0.1403   0.00774   0.00169  -0.0529   0.7223   0.3283
  -0.900   0.1507   0.00772   0.00166  -0.0528   0.7032   0.3435
  -0.800   0.1611   0.00766   0.00166  -0.0528   0.6973   0.3579
  -0.700   0.1716   0.00761   0.00166  -0.0527   0.6927   0.3716
  -0.600   0.1822   0.00757   0.00165  -0.0526   0.6869   0.3843
  -0.500   0.1927   0.00754   0.00164  -0.0526   0.6801   0.3962
  -0.400   0.2030   0.00748   0.00164  -0.0525   0.6720   0.4246
  -0.300   0.2124   0.00736   0.00163  -0.0522   0.6632   0.4604
  -0.200   0.2223   0.00732   0.00163  -0.0520   0.6535   0.4831
  -0.100   0.2322   0.00732   0.00163  -0.0518   0.6430   0.5001
   0.000   0.2407   0.00723   0.00164  -0.0514   0.6312   0.5450
   0.100   0.2495   0.00717   0.00165  -0.0509   0.6170   0.5794
   0.200   0.2595   0.00717   0.00166  -0.0507   0.6028   0.5974
   0.300   0.2693   0.00709   0.00169  -0.0505   0.5975   0.6302
   0.400   0.2783   0.00693   0.00174  -0.0500   0.5961   0.6772
   0.500   0.2889   0.00691   0.00176  -0.0500   0.5938   0.6931
   0.600   0.2997   0.00690   0.00177  -0.0499   0.5902   0.7068
   0.700   0.3095   0.00684   0.00180  -0.0496   0.5864   0.7340
   0.800   0.3193   0.00679   0.00183  -0.0493   0.5824   0.7575
   0.900   0.3295   0.00678   0.00185  -0.0491   0.5774   0.7776
   1.000   0.3399   0.00679   0.00187  -0.0490   0.5710   0.7937
   1.100   0.3494   0.00680   0.00190  -0.0486   0.5635   0.8221
   1.200   0.3586   0.00681   0.00196  -0.0480   0.5553   0.8599
   1.300   0.3684   0.00686   0.00201  -0.0476   0.5463   0.8863
   1.400   0.3785   0.00692   0.00204  -0.0474   0.5370   0.9024
   1.500   0.3951   0.00700   0.00211  -0.0485   0.5270   0.9282
   1.600   0.4080   0.00707   0.00217  -0.0488   0.5177   0.9465
   1.700   0.4284   0.00715   0.00221  -0.0508   0.5064   0.9603
   1.800   0.4509   0.00721   0.00225  -0.0533   0.4991   0.9720
   1.900   0.4712   0.00725   0.00228  -0.0553   0.4963   0.9808
   2.000   0.4895   0.00729   0.00231  -0.0569   0.4922   0.9873
  -2.000   0.0363   0.00810   0.00212  -0.0543   0.8349   0.2368
  -1.900   0.0471   0.00806   0.00205  -0.0543   0.8200   0.2444
  -1.800   0.0587   0.00804   0.00202  -0.0544   0.8039   0.2503
  -1.700   0.0689   0.00796   0.00199  -0.0543   0.7983   0.2621
  -1.600   0.0787   0.00785   0.00196  -0.0540   0.7949   0.2734
  -1.500   0.0887   0.00778   0.00193  -0.0538   0.7896   0.2831
  -1.400   0.0990   0.00773   0.00190  -0.0537   0.7817   0.2907
  -1.300   0.1095   0.00771   0.00185  -0.0535   0.7708   0.2965
  -1.200   0.1200   0.00771   0.00180  -0.0534   0.7572   0.3016
  -1.100   0.1304   0.00772   0.00175  -0.0532   0.7413   0.3136
  -1.000   0.1403   0.00774   0.00169  -0.0529   0.7223   0.3283
  -0.900   0.1507   0.00772   0.00166  -0.0528   0.7032   0.3435
  -0.800   0.1611   0.00766   0.00166  -0.0528   0.6973   0.3579
  -0.700   0.1716   0.00761   0.00166  -0.0527   0.6927   0.3716
  -0.600   0.1822   0.00757   0.00165  -0.0526   0.6869   0.3843
  -0.500   0.1927   0.00754   0.00164  -0.0526   0.6801   0.3962
  -0.400   0.2030   0.00748   0.00164  -0.0525   0.6720   0.4246
  -0.300   0.2124   0.00736   0.00163  -0.0522   0.6632   0.4604
  -0.200   0.2223   0.00732   0.00163  -0.0520   0.6535   0.4831
  -0.100   0.2322   0.00732   0.00163  -0.0518   0.6430   0.5001
   0.000   0.2407   0.00723   0.00164  -0.0514   0.6312   0.5450
   0.100   0.2495   0.00717   0.00165  -0.0509   0.6170   0.5794
   0.200   0.2595   0.00717   0.00166  -0.0507   0.6028   0.5974
   0.300   0.2693   0.00709   0.00169  -0.0505   0.5975   0.6302
   0.400   0.2783   0.00693   0.00174  -0.0500   0.5961   0.6772
   0.500   0.2889   0.00691   0.00176  -0.0500   0.5938   0.6931
   0.600   0.2997   0.00690   0.00177  -0.0499   0.5902   0.7068
   0.700   0.3095   0.00684   0.00180  -0.0496   0.5864   0.7340
   0.800   0.3193   0.00679   0.00183  -0.0493   0.5824   0.7575
   0.900   0.3295   0.00678   0.00185  -0.0491   0.5774   0.7776
   1.000   0.3399   0.00679   0.00187  -0.0490   0.5710   0.7937
   1.100   0.3494   0.00680   0.00190  -0.0486   0.5635   0.8221
   1.200   0.3586   0.00681   0.00196  -0.0480   0.5553   0.8599
   1.300   0.3684   0.00686   0.00201  -0.0476   0.5463   0.8863
   1.400   0.3785   0.00692   0.00204  -0.0474   0.5370   0.9024
   1.500   0.3951   0.00700   0.00211  -0.0485   0.5270   0.9282
   1.600   0.4080   0.00707   0.00217  -0.0488   0.5177   0.9465
   1.700   0.4284   0.00715   0.00221  -0.0508   0.5064   0.9603
   1.800   0.4509   0.00721   0.00225  -0.0533   0.4991   0.9720
   1.900   0.4712   0.00725   0.00228  -0.0553   0.4963   0.9808
   2.000   0.4895   0.00729   0.00231  -0.0569   0.4922   0.9873
  -2.000   0.0363   0.00810   0.00212  -0.0543   0.8349   0.2368
  -1.900   0.0471   0.00806   0.00205  -0.0543   0.8200   0.2444
  -1.800   0.0587   0.00804   0.00202  -0.0544   0.8039   0.2503
  -1.700   0.0689   0.00796   0.00199  -0.0543   0.7983   0.2621
  -1.600   0.0787   0.00785   0.00196  -0.0540   0.7949   0.2734
  -1.500   0.0887   0.00778   0.00193  -0.0538   0.7896   0.2831
  -1.400   0.0990   0.00773   0.00190  -0.0537   0.7817   0.2907
  -1.300   0.1095   0.00771   0.00185  -0.0535   0.7708   0.2965
  -1.200   0.1200   0.00771   0.00180  -0.0534   0.7572   0.3016
  -1.100   0.1304   0.00772   0.00175  -0.0532   0.7413   0.3136
  -1.000   0.1403   0.00774   0.00169  -0.0529   0.7223   0.3283
  -0.900   0.1507   0.00772   0.00166  -0.0528   0.7032   0.3435
  -0.800   0.1611   0.00766   0.00166  -0.0528   0.6973   0.3579
  -0.700   0.1716   0.00761   0.00166  -0.0527   0.6927   0.3716
  -0.600   0.1822   0.00757   0.00165  -0.0526   0.6869   0.3843
  -0.500   0.1927   0.00754   0.00164  -0.0526   0.6801   0.3962
  -0.400   0.2030   0.00748   0.00164  -0.0525   0.6720   0.4246
  -0.300   0.2124   0.00736   0.00163  -0.0522   0.6632   0.4604
  -0.200   0.2223   0.00732   0.00163  -0.0520   0.6535   0.4831
  -0.100   0.2322   0.00732   0.00163  -0.0518   0.6430   0.5001
   0.000   0.2407   0.00723   0.00164  -0.0514   0.6312   0.5450
   0.100   0.2495   0.00717   0.00165  -0.0509   0.6170   0.5794
   0.200   0.2595   0.00717   0.00166  -0.0507   0.6028   0.5974
   0.300   0.2693   0.00709   0.00169  -0.0505   0.5975   0.6302
   0.400   0.2783   0.00693   0.00174  -0.0500   0.5961   0.6772
   0.500   0.2889   0.00691   0.00176  -0.0500   0.5938   0.6931
   0.600   0.2997   0.00690   0.00177  -0.0499   0.5902   0.7068
   0.700   0.3095   0.00684   0.00180  -0.0496   0.5864   0.7340
   0.800   0.3193   0.00679   0.00183  -0.0493   0.5824   0.7575
   0.900   0.3295   0.00678   0.00185  -0.0491   0.5774   0.7776
   1.000   0.3399   0.00679   0.00187  -0.0490   0.5710   0.7937
   1.100   0.3494   0.00680   0.00190  -0.0486   0.5635   0.8221
   1.200   0.3586   0.00681   0.00196  -0.0480   0.5553   0.8599
   1.300   0.3684   0.00686   0.00201  -0.0476   0.5463   0.8863
   1.400   0.3785   0.00692   0.00204  -0.0474   0.5370   0.9024
   1.500   0.3951   0.00700   0.00211  -0.0485   0.5270   0.9282
   1.600   0.4080   0.00707   0.00217  -0.0488   0.5177   0.9465
   1.700   0.4284   0.00715   0.00221  -0.0508   0.5064   0.9603
   1.800   0.4509   0.00721   0.00225  -0.0533   0.4991   0.9720
   1.900   0.4712   0.00725   0.00228  -0.0553   0.4963   0.9808
   2.000   0.4895   0.00729   0.00231  -0.0569   0.4922   0.9873
  -2.000   0.0363   0.00810   0.00212  -0.0543   0.8349   0.2368
  -1.900   0.0471   0.00806   0.00205  -0.0543   0.8200   0.2444
  -1.800   0.0587   0.00804   0.00202  -0.0544   0.8039   0.2503
  -1.700   0.0689   0.00796   0.00199  -0.0543   0.7983   0.2621
  -1.600   0.0787   0.00785   0.00196  -0.0540   0.7949   0.2734
  -1.500   0.0887   0.00778   0.00193  -0.0538   0.7896   0.2831
  -1.400   0.0990   0.00773   0.00190  -0.0537   0.7817   0.2907
  -1.300   0.1095   0.00771   0.00185  -0.0535   0.7708   0.2965
  -1.200   0.1200   0.00771   0.00180  -0.0534   0.7572   0.3016
  -1.100   0.1304   0.00772   0.00175  -0.0532   0.7413   0.3136
  -1.000   0.1403   0.00774   0.00169  -0.0529   0.7223   0.3283
  -0.900   0.1507   0.00772   0.00166  -0.0528   0.7032   0.3435
  -0.800   0.1611   0.00766   0.00166  -0.0528   0.6973   0.3579
  -0.700   0.1716   0.00761   0.00166  -0.0527   0.6927   0.3716
  -0.600   0.1822   0.00757   0.00165  -0.0526   0.6869   0.3843
  -0.500   0.1927   0.00754   0.00164  -0.0526   0.6801   0.3962
  -0.400   0.2030   0.00748   0.00164  -0.0525   0.6720   0.4246
  -0.300   0.2124   0.00736   0.00163  -0.0522   0.6632   0.4604
  -0.200   0.2223   0.00732   0.00163  -0.0520   0.6535   0.4831
  -0.100   0.2322   0.00732   0.00163  -0.0518   0.6430   0.5001
   0.000   0.2407   0.00723   0.00164  -0.0514   0.6312   0.5450
   0.100   0.2495   0.00717   0.00165  -0.0509   0.6170   0.5794
   0.200   0.2595   0.00717   0.00166  -0.0507   0.6028   0.5974
   0.300   0.2693   0.00709   0.00169  -0.0505   0.5975   0.6302
   0.400   0.2783   0.00693   0.00174  -0.0500   0.5961   0.6772
   0.500   0.2889   0.00691   0.00176  -0.0500   0.5938   0.6931
   0.600   0.2997   0.00690   0.00177  -0.0499   0.5902   0.7068
   0.700   0.3095   0.00684   0.00180  -0.0496   0.5864   0.7340
   0.800   0.3193   0.00679   0.00183  -0.0493   0.5824   0.7575
   0.900   0.3295   0.00678   0.00185  -0.0491   0.5774   0.7776
   1.000   0.3399   0.00679   0.00187  -0.0490   0.5710   0.7937
   1.100   0.3494   0.00680   0.00190  -0.0486   0.5635   0.8221
   1.200   0.3586   0.00681   0.00196  -0.0480   0.5553   0.8599
   1.300   0.3684   0.00686   0.00201  -0.0476   0.5463   0.8863
   1.400   0.3785   0.00692   0.00204  -0.0474   0.5370   0.9024
   1.500   0.3951   0.00700   0.00211  -0.0485   0.5270   0.9282
   1.600   0.4080   0.00707   0.00217  -0.0488   0.5177   0.9465
   1.700   0.4284   0.00715   0.00221  -0.0508   0.5064   0.9603
   1.800   0.4509   0.00721   0.00225  -0.0533   0.4991   0.9720
   1.900   0.4712   0.00725   0.00228  -0.0553   0.4963   0.9808
   2.000   0.4895   0.00729   0.00231  -0.0569   0.4922   0.9873
  -2.000   0.0363   0.00810   0.00212  -0.0543   0.8349   0.2368
  -1.900   0.0471   0.00806   0.00205  -0.0543   0.8200   0.2444
  -1.800   0.0587   0.00804   0.00202  -0.0544   0.8039   0.2503
  -1.700   0.0689   0.00796   0.00199  -0.0543   0.7983   0.2621
  -1.600   0.0787   0.00785   0.00196  -0.0540   0.7949   0.2734
  -1.500   0.0887   0.00778   0.00193  -0.0538   0.7896   0.2831
  -1.400   0.0990   0.00773   0.00190  -0.0537   0.7817   0.2907
  -1.300   0.1095   0.00771   0.00185  -0.0535   0.7708   0.2965
  -1.200   0.1200   0.00771   0.00180  -0.0534   0.7572   0.3016
  -1.100   0.1304   0.00772   0.00175  -0.0532   0.7413   0.3136
  -1.000   0.1403   0.00774   0.00169  -0.0529   0.7223   0.3283
  -0.900   0.1507   0.00772   0.00166  -0.0528   0.7032   0.3435
  -0.800   0.1611   0.00766   0.00166  -0.0528   0.6973   0.3579
  -0.700   0.1716   0.00761   0.00166  -0.0527   0.6927   0.3716
  -0.600   0.1822   0.00757   0.00165  -0.0526   0.6869   0.3843
  -0.500   0.1927   0.00754   0.00164  -0.0526   0.6801   0.3962
  -0.400   0.2030   0.00748   0.00164  -0.0525   0.6720   0.4246
  -0.300   0.2124   0.00736   0.00163  -0.0522   0.6632   0.4604
  -0.200   0.2223   0.00732   0.00163  -0.0520   0.6535   0.4831
  -0.100   0.2322   0.00732   0.00163  -0.0518   0.6430   0.5001
   0.000   0.2407   0.00723   0.00164  -0.0514   0.6312   0.5450
   0.100   0.2495   0.00717   0.00165  -0.0509   0.6170   0.5794
   0.200   0.2595   0.00717   0.00166  -0.0507   0.6028   0.5974
   0.300   0.2693   0.00709   0.00169  -0.0505   0.5975   0.6302
   0.400   0.2783   0.00693   0.00174  -0.0500   0.5961   0.6772
   0.500   0.2889   0.00691   0.00176  -0.0500   0.5938   0.6931
   0.600   0.2997   0.00690   0.00177  -0.0499   0.5902   0.7068
   0.700   0.3095   0.00684   0.00180  -0.0496   0.5864   0.7340
   0.800   0.3193   0.00679   0.00183  -0.0493   0.5824   0.7575
   0.900   0.3295   0.00678   0.00185  -0.0491   0.5774   0.7776
   1.000   0.3399   0.00679   0.00187  -0.0490   0.5710   0.7937
   1.100   0.3494   0.00680   0.00190  -0.0486   0.5635   0.8221
   1.200   0.3586   0.00681   0.00196  -0.0480   0.5553   0.8599
   1.300   0.3684   0.00686   0.00201  -0.0476   0.5463   0.8863
   1.400   0.3785   0.00692   0.00204  -0.0474   0.5370   0.9024
   1.500   0.3951   0.00700   0.00211  -0.0485   0.5270   0.9282
   1.600   0.4080   0.00707   0.00217  -0.0488   0.5177   0.9465
   1.700   0.4284   0.00715   0.00221  -0.0508   0.5064   0.9603
   1.800   0.4509   0.00721   0.00225  -0.0533   0.4991   0.9720
   1.900   0.4712   0.00725   0.00228  -0.0553   0.4963   0.9808
   2.000   0.4895   0.00729   0.00231  -0.0569   0.4922   0.9873
  -2.000   0.0363   0.00810   0.00212  -0.0543   0.8349   0.2368
  -1.900   0.0471   0.00806   0.00205  -0.0543   0.8200   0.2444
  -1.800   0.0587   0.00804   0.00202  -0.0544   0.8039   0.2503
  -1.700   0.0689   0.00796   0.00199  -0.0543   0.7983   0.2621
  -1.600   0.0787   0.00785   0.00196  -0.0540   0.7949   0.2734
  -1.500   0.0887   0.00778   0.00193  -0.0538   0.7896   0.2831
  -1.400   0.0990   0.00773   0.00190  -0.0537   0.7817   0.2907
  -1.300   0.1095   0.00771   0.00185  -0.0535   0.7708   0.2965
  -1.200   0.1200   0.00771   0.00180  -0.0534   0.7572   0.3016
  -1.100   0.1304   0.00772   0.00175  -0.0532   0.7413   0.3136
  -1.000   0.1403   0.00774   0.00169  -0.0529   0.7223   0.3283
  -0.900   0.1507   0.00772   0.00166  -0.0528   0.7032   0.3435
  -0.800   0.1611   0.00766   0.00166  -0.0528   0.6973   0.3579
  -0.700   0.1716   0.00761   0.00166  -0.0527   0.6927   0.3716
  -0.600   0.1822   0.00757   0.00165  -0.0526   0.6869   0.3843
  -0.500   0.1927   0.00754   0.00164  -0.0526   0.6801   0.3962
  -0.400   0.2030   0.00748   0.00164  -0.0525   0.6720   0.4246
  -0.300   0.2124   0.00736   0.00163  -0.0522   0.6632   0.4604
  -0.200   0.2223   0.00732   0.00163  -0.0520   0.6535   0.4831
  -0.100   0.2322   0.00732   0.00163  -0.0518   0.6430   0.5001
   0.000   0.2407   0.00723   0.00164  -0.0514   0.6312   0.5450
   0.100   0.2495   0.00717   0.00165  -0.0509   0.6170   0.5794
   0.200   0.2595   0.00717   0.00166  -0.0507   0.6028   0.5974
   0.300   0.2693   0.00709   0.00169  -0.0505   0.5975   0.6302
   0.400   0.2783   0.00693   0.00174  -0.0500   0.5961   0.6772
   0.500   0.2889   0.00691   0.00176  -0.0500   0.5938   0.6931
   0.600   0.2997   0.00690   0.00177  -0.0499   0.5902   0.7068
   0.700   0.3095   0.00684   0.00180  -0.0496   0.5864   0.7340
   0.800   0.3193   0.00679   0.00183  -0.0493   0.5824   0.7575
   0.900   0.3295   0.00678   0.00185  -0.0491   0.5774   0.7776
   1.000   0.3399   0.00679   0.00187  -0.0490   0.5710   0.7937
   1.100   0.3494   0.00680   0.00190  -0.0486   0.5635   0.8221
   1.200   0.3586   0.00681   0.00196  -0.0480   0.5553   0.8599
   1.300   0.3684   0.00686   0.00201  -0.0476   0.5463   0.8863
   1.400   0.3785   0.00692   0.00204  -0.0474   0.5370   0.9024
   1.500   0.3951   0.00700   0.00211  -0.0485   0.5270   0.9282
   1.600   0.4080   0.00707   0.00217  -0.0488   0.5177   0.9465
   1.700   0.4284   0.00715   0.00221  -0.0508   0.5064   0.9603
   1.800   0.4509   0.00721   0.00225  -0.0533   0.4991   0.9720
   1.900   0.4712   0.00725   0.00228  -0.0553   0.4963   0.9808
   2.000   0.4895   0.00729   0.00231  -0.0569   0.4922   0.9873
