  
       XFOIL         Version 6.97
  
 Calculated polar for: NACA 2412                                       
  
 1 1 Reynolds number fixed          Mach number fixed         
  
 xtrf =   1.000 (top)        1.000 (bottom)  
 Mach =   0.000     Re =     0.000 e 6     Ncrit =   9.000
  
   alpha    CL        CD       CDp       CM     Top_Xtr  Bot_Xtr
  ------ -------- --------- --------- -------- -------- --------
 -50.000  -5.1404   0.00000  -0.00234  -0.0299   0.0000   0.0000
 -49.000  -5.0584   0.00000  -0.00234  -0.0292   0.0000   0.0000
 -48.000  -4.9749   0.00000  -0.00234  -0.0286   0.0000   0.0000
 -47.000  -4.8899   0.00000  -0.00234  -0.0281   0.0000   0.0000
 -46.000  -4.8035   0.00000  -0.00233  -0.0275   0.0000   0.0000
 -45.000  -4.7155   0.00000  -0.00233  -0.0271   0.0000   0.0000
 -44.000  -4.6261   0.00000  -0.00231  -0.0266   0.0000   0.0000
 -43.000  -4.5353   0.00000  -0.00230  -0.0263   0.0000   0.0000
 -42.000  -4.4432   0.00000  -0.00228  -0.0260   0.0000   0.0000
 -41.000  -4.3497   0.00000  -0.00226  -0.0257   0.0000   0.0000
 -40.000  -4.2548   0.00000  -0.00224  -0.0255   0.0000   0.0000
 -39.000  -4.1587   0.00000  -0.00222  -0.0253   0.0000   0.0000
 -38.000  -4.0613   0.00000  -0.00219  -0.0252   0.0000   0.0000
 -37.000  -3.9627   0.00000  -0.00216  -0.0252   0.0000   0.0000
 -36.000  -3.8628   0.00000  -0.00213  -0.0251   0.0000   0.0000
 -35.000  -3.7618   0.00000  -0.00209  -0.0252   0.0000   0.0000
 -34.000  -3.6597   0.00000  -0.00206  -0.0253   0.0000   0.0000
 -33.000  -3.5564   0.00000  -0.00202  -0.0255   0.0000   0.0000
 -32.000  -3.4521   0.00000  -0.00199  -0.0257   0.0000   0.0000
 -31.000  -3.3467   0.00000  -0.00195  -0.0259   0.0000   0.0000
 -30.000  -3.2403   0.00000  -0.00191  -0.0262   0.0000   0.0000
 -29.000  -3.1329   0.00000  -0.00187  -0.0266   0.0000   0.0000
 -28.000  -3.0245   0.00000  -0.00183  -0.0270   0.0000   0.0000
 -27.000  -2.9153   0.00000  -0.00179  -0.0275   0.0000   0.0000
 -26.000  -2.8051   0.00000  -0.00175  -0.0280   0.0000   0.0000
 -25.000  -2.6941   0.00000  -0.00171  -0.0286   0.0000   0.0000
 -24.000  -2.5823   0.00000  -0.00166  -0.0292   0.0000   0.0000
 -23.000  -2.4697   0.00000  -0.00162  -0.0298   0.0000   0.0000
 -22.000  -2.3564   0.00000  -0.00158  -0.0305   0.0000   0.0000
 -21.000  -2.2423   0.00000  -0.00154  -0.0313   0.0000   0.0000
 -20.000  -2.1275   0.00000  -0.00150  -0.0321   0.0000   0.0000
 -19.000  -2.0122   0.00000  -0.00146  -0.0329   0.0000   0.0000
 -18.000  -1.8962   0.00000  -0.00143  -0.0338   0.0000   0.0000
 -17.000  -1.7796   0.00000  -0.00139  -0.0347   0.0000   0.0000
 -16.000  -1.6625   0.00000  -0.00136  -0.0357   0.0000   0.0000
 -15.000  -1.5448   0.00000  -0.00132  -0.0367   0.0000   0.0000
 -14.000  -1.4268   0.00000  -0.00129  -0.0378   0.0000   0.0000
 -13.000  -1.3082   0.00000  -0.00126  -0.0389   0.0000   0.0000
 -12.000  -1.1893   0.00000  -0.00123  -0.0400   0.0000   0.0000
 -11.000  -1.0700   0.00000  -0.00121  -0.0411   0.0000   0.0000
 -10.000  -0.9504   0.00000  -0.00118  -0.0423   0.0000   0.0000
  -9.000  -0.8306   0.00000  -0.00116  -0.0436   0.0000   0.0000
  -8.000  -0.7104   0.00000  -0.00114  -0.0448   0.0000   0.0000
  -7.000  -0.5901   0.00000  -0.00112  -0.0461   0.0000   0.0000
  -6.000  -0.4695   0.00000  -0.00111  -0.0474   0.0000   0.0000
  -5.000  -0.3488   0.00000  -0.00109  -0.0487   0.0000   0.0000
  -4.000  -0.2281   0.00000  -0.00108  -0.0501   0.0000   0.0000
  -3.000  -0.1072   0.00000  -0.00108  -0.0515   0.0000   0.0000
  -2.000   0.0137   0.00000  -0.00107  -0.0529   0.0000   0.0000
  -1.000   0.1345   0.00000  -0.00107  -0.0543   0.0000   0.0000
   0.000   0.2554   0.00000  -0.00107  -0.0557   0.0000   0.0000
   1.000   0.3761   0.00000  -0.00107  -0.0572   0.0000   0.0000
   2.000   0.4968   0.00000  -0.00108  -0.0587   0.0000   0.0000
   3.000   0.6173   0.00000  -0.00109  -0.0601   0.0000   0.0000
   4.000   0.7376   0.00000  -0.00110  -0.0616   0.0000   0.0000
   5.000   0.8577   0.00000  -0.00111  -0.0631   0.0000   0.0000
   6.000   0.9775   0.00000  -0.00113  -0.0646   0.0000   0.0000
   7.000   1.0970   0.00000  -0.00115  -0.0661   0.0000   0.0000
   8.000   1.2162   0.00000  -0.00117  -0.0677   0.0000   0.0000
   9.000   1.3350   0.00000  -0.00119  -0.0692   0.0000   0.0000
  10.000   1.4534   0.00000  -0.00122  -0.0707   0.0000   0.0000
  11.000   1.5714   0.00000  -0.00125  -0.0722   0.0000   0.0000
  12.000   1.6889   0.00000  -0.00128  -0.0737   0.0000   0.0000
  13.000   1.8059   0.00000  -0.00131  -0.0752   0.0000   0.0000
  14.000   1.9223   0.00000  -0.00135  -0.0767   0.0000   0.0000
  15.000   2.0382   0.00000  -0.00139  -0.0782   0.0000   0.0000
  16.000   2.1534   0.00000  -0.00142  -0.0796   0.0000   0.0000
  17.000   2.2680   0.00000  -0.00147  -0.0811   0.0000   0.0000
  18.000   2.3819   0.00000  -0.00151  -0.0825   0.0000   0.0000
  19.000   2.4950   0.00000  -0.00155  -0.0840   0.0000   0.0000
  20.000   2.6074   0.00000  -0.00160  -0.0854   0.0000   0.0000
  21.000   2.7190   0.00000  -0.00164  -0.0867   0.0000   0.0000
  22.000   2.8298   0.00000  -0.00169  -0.0881   0.0000   0.0000
  23.000   2.9398   0.00000  -0.00174  -0.0894   0.0000   0.0000
  24.000   3.0488   0.00000  -0.00179  -0.0908   0.0000   0.0000
  25.000   3.1569   0.00000  -0.00184  -0.0920   0.0000   0.0000
  26.000   3.2641   0.00000  -0.00189  -0.0933   0.0000   0.0000
  27.000   3.3702   0.00000  -0.00194  -0.0945   0.0000   0.0000
  28.000   3.4754   0.00000  -0.00199  -0.0957   0.0000   0.0000
  29.000   3.5795   0.00000  -0.00204  -0.0969   0.0000   0.0000
  30.000   3.6825   0.00000  -0.00209  -0.0980   0.0000   0.0000
  31.000   3.7843   0.00000  -0.00214  -0.0991   0.0000   0.0000
  32.000   3.8851   0.00000  -0.00219  -0.1001   0.0000   0.0000
  33.000   3.9846   0.00000  -0.00224  -0.1012   0.0000   0.0000
  34.000   4.0829   0.00000  -0.00229  -0.1021   0.0000   0.0000
  35.000   4.1800   0.00000  -0.00233  -0.1031   0.0000   0.0000
  36.000   4.2759   0.00000  -0.00238  -0.1040   0.0000   0.0000
  37.000   4.3704   0.00000  -0.00242  -0.1048   0.0000   0.0000
  38.000   4.4636   0.00000  -0.00246  -0.1056   0.0000   0.0000
  39.000   4.5554   0.00000  -0.00250  -0.1064   0.0000   0.0000
  40.000   4.6459   0.00000  -0.00254  -0.1071   0.0000   0.0000
  41.000   4.7349   0.00000  -0.00258  -0.1078   0.0000   0.0000
  42.000   4.8225   0.00000  -0.00261  -0.1084   0.0000   0.0000
  43.000   4.9087   0.00000  -0.00264  -0.1089   0.0000   0.0000
  44.000   4.9933   0.00000  -0.00267  -0.1095   0.0000   0.0000
  45.000   5.0764   0.00000  -0.00270  -0.1099   0.0000   0.0000
  46.000   5.1580   0.00000  -0.00272  -0.1104   0.0000   0.0000
  47.000   5.2380   0.00000  -0.00274  -0.1107   0.0000   0.0000
  48.000   5.3165   0.00000  -0.00276  -0.1110   0.0000   0.0000
  49.000   5.3933   0.00000  -0.00277  -0.1113   0.0000   0.0000
  50.000   5.4684   0.00000  -0.00278  -0.1115   0.0000   0.0000
