  
       XFOIL         Version 6.97
  
 Calculated polar for: NACA 2412                                       
  
 1 1 Reynolds number fixed          Mach number fixed         
  
 xtrf =   1.000 (top)        1.000 (bottom)  
 Mach =   0.000     Re =     0.500 e 6     Ncrit =   9.000
  
   alpha    CL        CD       CDp       CM     Top_Xtr  Bot_Xtr
  ------ -------- --------- --------- -------- -------- --------
 -11.000  -0.9009   0.02914   0.02443  -0.0480   1.0000   0.0124
  -9.000  -0.8212   0.01671   0.01038  -0.0299   0.9979   0.0150
  -8.000  -0.6839   0.02228   0.01699  -0.0376   0.9902   0.0370
  -7.000  -0.5571   0.01772   0.01191  -0.0433   0.9743   0.0389
  -6.000  -0.4267   0.01433   0.00815  -0.0488   0.9619   0.0403
  -5.000  -0.2956   0.01188   0.00535  -0.0539   0.9477   0.0390
  -4.000  -0.1809   0.01040   0.00361  -0.0546   0.9212   0.0400
  -3.000  -0.0681   0.00894   0.00264  -0.0555   0.8936   0.1374
  -2.000   0.0363   0.00810   0.00212  -0.0543   0.8349   0.2368
  -1.000   0.1403   0.00774   0.00169  -0.0529   0.7224   0.3283
   0.000   0.2407   0.00723   0.00164  -0.0514   0.6312   0.5450
   1.000   0.3399   0.00679   0.00187  -0.0490   0.5710   0.7937
   2.000   0.4895   0.00729   0.00231  -0.0569   0.4922   0.9873
   3.000   0.6095   0.00802   0.00256  -0.0599   0.4013   1.0000
   4.000   0.7016   0.00876   0.00295  -0.0569   0.3356   1.0000
   5.000   0.7815   0.01048   0.00380  -0.0519   0.1971   1.0000
   6.000   0.8567   0.01335   0.00569  -0.0462   0.0416   1.0000
   7.000   0.9485   0.01495   0.00750  -0.0432   0.0398   1.0000
   8.000   1.0353   0.01692   0.00956  -0.0397   0.0357   1.0000
   9.000   1.1286   0.01800   0.01076  -0.0384   0.0202   1.0000
  10.000   1.1979   0.02075   0.01344  -0.0329   0.0127   1.0000
  11.000   1.2348   0.02502   0.01810  -0.0231   0.0123   1.0000
  12.000   1.2741   0.02948   0.02292  -0.0163   0.0122   1.0000
 -11.000  -0.9009   0.02914   0.02443  -0.0480   1.0000   0.0124
  -9.000  -0.8212   0.01671   0.01038  -0.0299   0.9979   0.0150
  -8.000  -0.6839   0.02228   0.01699  -0.0376   0.9902   0.0370
  -7.000  -0.5571   0.01772   0.01191  -0.0433   0.9743   0.0389
  -6.000  -0.4267   0.01433   0.00815  -0.0488   0.9619   0.0403
  -5.000  -0.2956   0.01188   0.00535  -0.0539   0.9477   0.0390
  -4.000  -0.1809   0.01040   0.00361  -0.0546   0.9212   0.0400
  -3.000  -0.0681   0.00894   0.00264  -0.0555   0.8936   0.1374
  -2.000   0.0363   0.00810   0.00212  -0.0543   0.8349   0.2368
  -1.000   0.1403   0.00774   0.00169  -0.0529   0.7224   0.3283
   0.000   0.2407   0.00723   0.00164  -0.0514   0.6312   0.5450
   1.000   0.3399   0.00679   0.00187  -0.0490   0.5710   0.7937
   2.000   0.4895   0.00729   0.00231  -0.0569   0.4922   0.9873
   3.000   0.6095   0.00802   0.00256  -0.0599   0.4013   1.0000
   4.000   0.7016   0.00876   0.00295  -0.0569   0.3356   1.0000
   5.000   0.7815   0.01048   0.00380  -0.0519   0.1971   1.0000
   6.000   0.8567   0.01335   0.00569  -0.0462   0.0416   1.0000
   7.000   0.9485   0.01495   0.00750  -0.0432   0.0398   1.0000
   8.000   1.0353   0.01692   0.00956  -0.0397   0.0357   1.0000
   9.000   1.1286   0.01800   0.01076  -0.0384   0.0202   1.0000
  10.000   1.1979   0.02075   0.01344  -0.0329   0.0127   1.0000
  11.000   1.2348   0.02502   0.01810  -0.0231   0.0123   1.0000
  12.000   1.2741   0.02948   0.02292  -0.0163   0.0122   1.0000
 -11.000  -0.9009   0.02914   0.02443  -0.0480   1.0000   0.0124
  -9.000  -0.8212   0.01671   0.01038  -0.0299   0.9979   0.0150
  -8.000  -0.6839   0.02228   0.01699  -0.0376   0.9902   0.0370
  -7.000  -0.5571   0.01772   0.01191  -0.0433   0.9743   0.0389
  -6.000  -0.4267   0.01433   0.00815  -0.0488   0.9619   0.0403
  -5.000  -0.2956   0.01188   0.00535  -0.0539   0.9477   0.0390
  -4.000  -0.1809   0.01040   0.00361  -0.0546   0.9212   0.0400
  -3.000  -0.0681   0.00894   0.00264  -0.0555   0.8936   0.1374
  -2.000   0.0363   0.00810   0.00212  -0.0543   0.8349   0.2368
  -1.000   0.1403   0.00774   0.00169  -0.0529   0.7224   0.3283
   0.000   0.2407   0.00723   0.00164  -0.0514   0.6312   0.5450
   1.000   0.3399   0.00679   0.00187  -0.0490   0.5710   0.7937
   2.000   0.4895   0.00729   0.00231  -0.0569   0.4922   0.9873
   3.000   0.6095   0.00802   0.00256  -0.0599   0.4013   1.0000
   4.000   0.7016   0.00876   0.00295  -0.0569   0.3356   1.0000
   5.000   0.7815   0.01048   0.00380  -0.0519   0.1971   1.0000
   6.000   0.8567   0.01335   0.00569  -0.0462   0.0416   1.0000
   7.000   0.9485   0.01495   0.00750  -0.0432   0.0398   1.0000
   8.000   1.0353   0.01692   0.00956  -0.0397   0.0357   1.0000
   9.000   1.1286   0.01800   0.01076  -0.0384   0.0202   1.0000
  10.000   1.1979   0.02075   0.01344  -0.0329   0.0127   1.0000
  11.000   1.2348   0.02502   0.01810  -0.0231   0.0123   1.0000
  12.000   1.2741   0.02948   0.02292  -0.0163   0.0122   1.0000
 -11.000  -0.9009   0.02914   0.02443  -0.0480   1.0000   0.0124
  -9.000  -0.8212   0.01671   0.01038  -0.0299   0.9979   0.0150
  -8.000  -0.6839   0.02228   0.01699  -0.0376   0.9902   0.0370
  -7.000  -0.5571   0.01772   0.01191  -0.0433   0.9743   0.0389
  -6.000  -0.4267   0.01433   0.00815  -0.0488   0.9619   0.0403
  -5.000  -0.2956   0.01188   0.00535  -0.0539   0.9477   0.0390
  -4.000  -0.1809   0.01040   0.00361  -0.0546   0.9212   0.0400
  -3.000  -0.0681   0.00894   0.00264  -0.0555   0.8936   0.1374
  -2.000   0.0363   0.00810   0.00212  -0.0543   0.8349   0.2368
  -1.000   0.1403   0.00774   0.00169  -0.0529   0.7224   0.3283
   0.000   0.2407   0.00723   0.00164  -0.0514   0.6312   0.5450
   1.000   0.3399   0.00679   0.00187  -0.0490   0.5710   0.7937
   2.000   0.4895   0.00729   0.00231  -0.0569   0.4922   0.9873
   3.000   0.6095   0.00802   0.00256  -0.0599   0.4013   1.0000
   4.000   0.7016   0.00876   0.00295  -0.0569   0.3356   1.0000
   5.000   0.7815   0.01048   0.00380  -0.0519   0.1971   1.0000
   6.000   0.8567   0.01335   0.00569  -0.0462   0.0416   1.0000
   7.000   0.9485   0.01495   0.00750  -0.0432   0.0398   1.0000
   8.000   1.0353   0.01692   0.00956  -0.0397   0.0357   1.0000
   9.000   1.1286   0.01800   0.01076  -0.0384   0.0202   1.0000
  10.000   1.1979   0.02075   0.01344  -0.0329   0.0127   1.0000
  11.000   1.2348   0.02502   0.01810  -0.0231   0.0123   1.0000
  12.000   1.2741   0.02948   0.02292  -0.0163   0.0122   1.0000
